data_crystal
 
_cell_length_a    37.80990
_cell_length_b    37.80990
_cell_length_c    3.47630
_cell_angle_alpha 90.00000
_cell_angle_beta  90.00000
_cell_angle_gamma 120.00000
 
_symmetry_space_group_name_Hall 'P 1'
_symmetry_space_group_name_H-M  'P 1'
 
loop_
_symmetry_equiv_pos_as_xyz
 'x,y,z' 
 
loop_
_atom_site_label
_atom_site_type_symbol
_atom_site_fract_x
_atom_site_fract_y
_atom_site_fract_z
_atom_site_charge
B          B       0.84269   0.42135   0.50000   0.0000000000
C          C       0.88995   0.44498   0.50000   0.0000000000
C          C       0.97683   0.48841   0.50000   0.0000000000
B          B       0.57866   0.42135   0.50000   0.0000000000
C          C       0.55502   0.44498   0.50000   0.0000000000
C          C       0.51158   0.48841   0.50000   0.0000000000
B          B       0.57866   0.15731   0.50000   0.0000000000
C          C       0.55502   0.11005   0.50000   0.0000000000
C          C       0.51158   0.02317   0.50000   0.0000000000
B          B       0.15731   0.57866   0.50000   0.0000000000
C          C       0.11005   0.55502   0.50000   0.0000000000
C          C       0.02317   0.51159   0.50000   0.0000000000
B          B       0.42135   0.57866   0.50000   0.0000000000
C          C       0.44498   0.55502   0.50000   0.0000000000
C          C       0.48841   0.51159   0.50000   0.0000000000
B          B       0.42135   0.84269   0.50000   0.0000000000
C          C       0.44498   0.88995   0.50000   0.0000000000
C          C       0.48841   0.97683   0.50000   0.0000000000
O          O       0.81778   0.37650   0.50000   0.0000000000
C          C       0.91150   0.42390   0.50000   0.0000000000
C          C       0.95417   0.44514   0.50000   0.0000000000
C          C       0.70447   0.33323   0.50000   0.0000000000
C          C       0.77887   0.37144   0.50000   0.0000000000
C          C       0.74277   0.33436   0.50000   0.0000000000
H          H       0.74615   0.30779   0.50000   0.0000000000
H          H       0.89543   0.39081   0.50000   0.0000000000
H          H       0.96838   0.42662   0.50000   0.0000000000
O          O       0.62350   0.44128   0.50000   0.0000000000
C          C       0.57610   0.48760   0.50000   0.0000000000
C          C       0.55486   0.50903   0.50000   0.0000000000
C          C       0.66677   0.37124   0.50000   0.0000000000
C          C       0.62856   0.40743   0.50000   0.0000000000
C          C       0.66564   0.40841   0.50000   0.0000000000
H          H       0.69221   0.43836   0.50000   0.0000000000
H          H       0.60919   0.50462   0.50000   0.0000000000
H          H       0.57338   0.54176   0.50000   0.0000000000
O          O       0.55872   0.18222   0.50000   0.0000000000
C          C       0.51240   0.08850   0.50000   0.0000000000
C          C       0.49097   0.04583   0.50000   0.0000000000
C          C       0.62876   0.29553   0.50000   0.0000000000
C          C       0.59257   0.22113   0.50000   0.0000000000
C          C       0.59159   0.25723   0.50000   0.0000000000
H          H       0.56164   0.25385   0.50000   0.0000000000
H          H       0.49538   0.10457   0.50000   0.0000000000
H          H       0.45824   0.03162   0.50000   0.0000000000
O          O       0.18222   0.62350   0.50000   0.0000000000
C          C       0.08850   0.57610   0.50000   0.0000000000
C          C       0.04583   0.55486   0.50000   0.0000000000
C          C       0.29553   0.66677   0.50000   0.0000000000
C          C       0.22113   0.62856   0.50000   0.0000000000
C          C       0.25723   0.66564   0.50000   0.0000000000
H          H       0.25385   0.69221   0.50000   0.0000000000
H          H       0.10457   0.60919   0.50000   0.0000000000
H          H       0.03162   0.57338   0.50000   0.0000000000
O          O       0.37650   0.55872   0.50000   0.0000000000
C          C       0.42390   0.51240   0.50000   0.0000000000
C          C       0.44514   0.49097   0.50000   0.0000000000
C          C       0.33323   0.62876   0.50000   0.0000000000
C          C       0.37144   0.59257   0.50000   0.0000000000
C          C       0.33436   0.59159   0.50000   0.0000000000
H          H       0.30779   0.56164   0.50000   0.0000000000
H          H       0.39081   0.49538   0.50000   0.0000000000
H          H       0.42662   0.45824   0.50000   0.0000000000
O          O       0.44128   0.81778   0.50000   0.0000000000
C          C       0.48760   0.91150   0.50000   0.0000000000
C          C       0.50903   0.95417   0.50000   0.0000000000
C          C       0.37124   0.70447   0.50000   0.0000000000
C          C       0.40743   0.77887   0.50000   0.0000000000
C          C       0.40841   0.74277   0.50000   0.0000000000
H          H       0.43836   0.74615   0.50000   0.0000000000
H          H       0.50462   0.89543   0.50000   0.0000000000
H          H       0.54176   0.96838   0.50000   0.0000000000
O          O       0.37650   0.81778   0.50000   0.0000000000
C          C       0.42390   0.91150   0.50000   0.0000000000
C          C       0.44514   0.95417   0.50000   0.0000000000
C          C       0.33323   0.70447   0.50000   0.0000000000
C          C       0.37144   0.77887   0.50000   0.0000000000
C          C       0.33436   0.74277   0.50000   0.0000000000
H          H       0.30779   0.74615   0.50000   0.0000000000
H          H       0.39081   0.89543   0.50000   0.0000000000
H          H       0.42662   0.96838   0.50000   0.0000000000
O          O       0.44128   0.62350   0.50000   0.0000000000
C          C       0.48760   0.57610   0.50000   0.0000000000
C          C       0.50903   0.55486   0.50000   0.0000000000
C          C       0.37124   0.66677   0.50000   0.0000000000
C          C       0.40743   0.62856   0.50000   0.0000000000
C          C       0.40841   0.66564   0.50000   0.0000000000
H          H       0.43836   0.69221   0.50000   0.0000000000
H          H       0.50462   0.60919   0.50000   0.0000000000
H          H       0.54176   0.57338   0.50000   0.0000000000
O          O       0.18222   0.55872   0.50000   0.0000000000
C          C       0.08850   0.51240   0.50000   0.0000000000
C          C       0.04583   0.49097   0.50000   0.0000000000
C          C       0.29553   0.62876   0.50000   0.0000000000
C          C       0.22113   0.59257   0.50000   0.0000000000
C          C       0.25723   0.59159   0.50000   0.0000000000
H          H       0.25385   0.56164   0.50000   0.0000000000
H          H       0.10457   0.49538   0.50000   0.0000000000
H          H       0.03162   0.45824   0.50000   0.0000000000
O          O       0.62350   0.18222   0.50000   0.0000000000
C          C       0.57610   0.08850   0.50000   0.0000000000
C          C       0.55486   0.04583   0.50000   0.0000000000
C          C       0.66677   0.29553   0.50000   0.0000000000
C          C       0.62856   0.22113   0.50000   0.0000000000
C          C       0.66564   0.25723   0.50000   0.0000000000
H          H       0.69221   0.25385   0.50000   0.0000000000
H          H       0.60919   0.10457   0.50000   0.0000000000
H          H       0.57338   0.03162   0.50000   0.0000000000
O          O       0.55872   0.37650   0.50000   0.0000000000
C          C       0.51240   0.42390   0.50000   0.0000000000
C          C       0.49097   0.44514   0.50000   0.0000000000
C          C       0.62876   0.33323   0.50000   0.0000000000
C          C       0.59257   0.37144   0.50000   0.0000000000
C          C       0.59159   0.33436   0.50000   0.0000000000
H          H       0.56164   0.30779   0.50000   0.0000000000
H          H       0.49538   0.39081   0.50000   0.0000000000
H          H       0.45824   0.42662   0.50000   0.0000000000
O          O       0.81778   0.44128   0.50000   0.0000000000
C          C       0.91150   0.48760   0.50000   0.0000000000
C          C       0.95417   0.50903   0.50000   0.0000000000
C          C       0.70447   0.37124   0.50000   0.0000000000
C          C       0.77887   0.40743   0.50000   0.0000000000
C          C       0.74277   0.40841   0.50000   0.0000000000
H          H       0.74615   0.43836   0.50000   0.0000000000
H          H       0.89543   0.50462   0.50000   0.0000000000
H          H       0.96838   0.54176   0.50000   0.0000000000
