data_crystal
 
_cell_length_a    22.73310
_cell_length_b    22.73310
_cell_length_c    3.47640
_cell_angle_alpha 90.00000
_cell_angle_beta  90.00000
_cell_angle_gamma 120.00000
 
_symmetry_space_group_name_Hall 'P 1'
_symmetry_space_group_name_H-M  'P 1'
 
loop_
_symmetry_equiv_pos_as_xyz
 'x,y,z' 
 
loop_
_atom_site_label
_atom_site_type_symbol
_atom_site_fract_x
_atom_site_fract_y
_atom_site_fract_z
_atom_site_charge
B          B       0.47930   0.95861   0.50000   0.0000000000
B          B       0.04139   0.52070   0.50000   0.0000000000
B          B       0.47930   0.52070   0.50000   0.0000000000
O          O       0.08202   0.48714   0.50000   0.0000000000
C          C       0.92475   0.40622   0.50000   0.0000000000
C          C       0.85418   0.37031   0.50000   0.0000000000
C          C       0.27046   0.60362   0.50000   0.0000000000
C          C       0.14673   0.54343   0.50000   0.0000000000
C          C       0.20677   0.54179   0.50000   0.0000000000
H          H       0.20114   0.49199   0.50000   0.0000000000
H          H       0.95199   0.37847   0.50000   0.0000000000
H          H       0.82803   0.31537   0.50000   0.0000000000
O          O       0.51286   0.59488   0.50000   0.0000000000
C          C       0.59378   0.51853   0.50000   0.0000000000
C          C       0.62969   0.48387   0.50000   0.0000000000
C          C       0.39638   0.66684   0.50000   0.0000000000
C          C       0.45657   0.60330   0.50000   0.0000000000
C          C       0.45821   0.66498   0.50000   0.0000000000
H          H       0.50801   0.70915   0.50000   0.0000000000
H          H       0.62153   0.57352   0.50000   0.0000000000
H          H       0.68463   0.51266   0.50000   0.0000000000
O          O       0.40512   0.91798   0.50000   0.0000000000
C          C       0.48147   0.07525   0.50000   0.0000000000
C          C       0.51613   0.14582   0.50000   0.0000000000
C          C       0.33316   0.72954   0.50000   0.0000000000
C          C       0.39670   0.85327   0.50000   0.0000000000
C          C       0.33502   0.79323   0.50000   0.0000000000
H          H       0.29085   0.79886   0.50000   0.0000000000
H          H       0.42648   0.04801   0.50000   0.0000000000
H          H       0.48734   0.17197   0.50000   0.0000000000
O          O       0.51286   0.91798   0.50000   0.0000000000
C          C       0.59378   0.07525   0.50000   0.0000000000
C          C       0.62969   0.14582   0.50000   0.0000000000
C          C       0.39638   0.72954   0.50000   0.0000000000
C          C       0.45657   0.85327   0.50000   0.0000000000
C          C       0.45821   0.79323   0.50000   0.0000000000
H          H       0.50801   0.79886   0.50000   0.0000000000
H          H       0.62153   0.04801   0.50000   0.0000000000
H          H       0.68463   0.17197   0.50000   0.0000000000
O          O       0.40512   0.48714   0.50000   0.0000000000
C          C       0.48147   0.40622   0.50000   0.0000000000
C          C       0.51613   0.37031   0.50000   0.0000000000
C          C       0.33316   0.60362   0.50000   0.0000000000
C          C       0.39670   0.54343   0.50000   0.0000000000
C          C       0.33502   0.54179   0.50000   0.0000000000
H          H       0.29085   0.49199   0.50000   0.0000000000
H          H       0.42648   0.37847   0.50000   0.0000000000
H          H       0.48734   0.31537   0.50000   0.0000000000
O          O       0.08202   0.59488   0.50000   0.0000000000
C          C       0.92475   0.51853   0.50000   0.0000000000
C          C       0.85418   0.48387   0.50000   0.0000000000
C          C       0.27046   0.66684   0.50000   0.0000000000
C          C       0.14673   0.60330   0.50000   0.0000000000
C          C       0.20677   0.66498   0.50000   0.0000000000
H          H       0.20114   0.70915   0.50000   0.0000000000
H          H       0.95199   0.57352   0.50000   0.0000000000
H          H       0.82803   0.51266   0.50000   0.0000000000
C          C       0.63092   0.26184   0.50000   0.0000000000
C          C       0.51889   0.03777   0.50000   0.0000000000
C          C       0.59262   0.18525   0.50000   0.0000000000
C          C       0.73816   0.36908   0.50000   0.0000000000
C          C       0.96223   0.48112   0.50000   0.0000000000
C          C       0.81475   0.40737   0.50000   0.0000000000
C          C       0.63092   0.36908   0.50000   0.0000000000
C          C       0.51889   0.48112   0.50000   0.0000000000
C          C       0.59262   0.40737   0.50000   0.0000000000
C          C       0.59596   0.29798   0.50000   0.0000000000
C          C       0.70202   0.29798   0.50000   0.0000000000
C          C       0.70202   0.40404   0.50000   0.0000000000
H          H       0.72995   0.27096   0.50000   0.0000000000
H          H       0.72904   0.45900   0.50000   0.0000000000
H          H       0.54100   0.27005   0.50000   0.0000000000
