data_crystal

_cell_length_a    15.09110
_cell_length_b    15.09110
_cell_length_c    7.19760
_cell_angle_alpha 90.00000
_cell_angle_beta  90.00000
_cell_angle_gamma 120.00000

_space_group_name_Hall 'P 1'
_space_group_name_H-M_alt  'P 1'

loop_
_symmetry_equiv_pos_as_xyz
'x,y,z' 

loop_
_atom_site_label
_atom_site_type_symbol
_atom_site_fract_x
_atom_site_fract_y
_atom_site_fract_z
B          B       0.44674   0.55326   0.25000 
C          C       0.38702   0.61298   0.25000 
B          B       0.44674   0.89348   0.25000 
C          C       0.38702   0.77404   0.25000 
B          B       0.10652   0.55326   0.25000 
C          C       0.22596   0.61298   0.25000 
O          O       0.55852   0.95472   0.25000 
C          C       0.66693   0.23861   0.25000 
C          C       0.57120   0.05219   0.25000 
C          C       0.66411   0.14263   0.25000 
H          H       0.73066   0.13415   0.25000 
O          O       0.04528   0.60380   0.25000 
C          C       0.76139   0.42832   0.25000 
C          C       0.94781   0.51901   0.25000 
C          C       0.85737   0.52148   0.25000 
H          H       0.86585   0.59651   0.25000 
O          O       0.39620   0.44148   0.25000 
C          C       0.57168   0.33307   0.25000 
C          C       0.48099   0.42880   0.25000 
C          C       0.47852   0.33589   0.25000 
H          H       0.40349   0.26934   0.25000 
O          O       0.04528   0.44148   0.25000 
C          C       0.76139   0.33307   0.25000 
C          C       0.94781   0.42880   0.25000 
C          C       0.85737   0.33589   0.25000 
H          H       0.86585   0.26934   0.25000 
O          O       0.39620   0.95472   0.25000 
C          C       0.57168   0.23861   0.25000 
C          C       0.48099   0.05219   0.25000 
C          C       0.47852   0.14263   0.25000 
H          H       0.40349   0.13415   0.25000 
O          O       0.55852   0.60380   0.25000 
C          C       0.66693   0.42832   0.25000 
C          C       0.57120   0.51901   0.25000 
C          C       0.66411   0.52148   0.25000 
H          H       0.73066   0.59651   0.25000 
C          C       0.44044   0.72022   0.25000 
C          C       0.27978   0.72022   0.25000 
C          C       0.27978   0.55956   0.25000 
H          H       0.23829   0.47658   0.25000 
H          H       0.52342   0.76171   0.25000 
H          H       0.23829   0.76171   0.25000 
B          B       0.44674   0.55326   0.75000 
C          C       0.38702   0.61298   0.75000 
B          B       0.44674   0.89348   0.75000 
C          C       0.38702   0.77404   0.75000 
B          B       0.10652   0.55326   0.75000 
C          C       0.22596   0.61298   0.75000 
O          O       0.55852   0.95472   0.75000 
C          C       0.66693   0.23861   0.75000 
C          C       0.57120   0.05219   0.75000 
C          C       0.66411   0.14263   0.75000 
H          H       0.73066   0.13415   0.75000 
O          O       0.04528   0.60380   0.75000 
C          C       0.76139   0.42832   0.75000 
C          C       0.94781   0.51901   0.75000 
C          C       0.85737   0.52148   0.75000 
H          H       0.86585   0.59651   0.75000 
O          O       0.39620   0.44148   0.75000 
C          C       0.57168   0.33307   0.75000 
C          C       0.48099   0.42880   0.75000 
C          C       0.47852   0.33589   0.75000 
H          H       0.40349   0.26934   0.75000 
O          O       0.04528   0.44148   0.75000 
C          C       0.76139   0.33307   0.75000 
C          C       0.94781   0.42880   0.75000 
C          C       0.85737   0.33589   0.75000 
H          H       0.86585   0.26934   0.75000 
O          O       0.39620   0.95472   0.75000 
C          C       0.57168   0.23861   0.75000 
C          C       0.48099   0.05219   0.75000 
C          C       0.47852   0.14263   0.75000 
H          H       0.40349   0.13415   0.75000 
O          O       0.55852   0.60380   0.75000 
C          C       0.66693   0.42832   0.75000 
C          C       0.57120   0.51901   0.75000 
C          C       0.66411   0.52148   0.75000 
H          H       0.73066   0.59651   0.75000 
C          C       0.44044   0.72022   0.75000 
C          C       0.27978   0.72022   0.75000 
C          C       0.27978   0.55956   0.75000 
H          H       0.23829   0.47658   0.75000 
H          H       0.52342   0.76171   0.75000 
H          H       0.23829   0.76171   0.75000 
