data_crystal

_cell_length_a    28.24770
_cell_length_b    28.24770
_cell_length_c    28.24770
_cell_angle_alpha 90.00000
_cell_angle_beta  90.00000
_cell_angle_gamma 90.00000

_space_group_name_Hall 'P 1'
_space_group_name_H-M_alt  'P 1'

loop_
_symmetry_equiv_pos_as_xyz
'x,y,z' 

loop_
_atom_site_label
_atom_site_type_symbol
_atom_site_fract_x
_atom_site_fract_y
_atom_site_fract_z
C          C       0.34070   0.07966   0.20001 
C          C       0.33591   0.05139   0.24007 
C          C       0.30021   0.06125   0.27253 
C          C       0.26989   0.09921   0.26533 
C          C       0.27496   0.12788   0.22549 
C          C       0.31062   0.11783   0.19290 
H          H       0.36748   0.07242   0.17407 
H          H       0.29575   0.03949   0.30345 
H          H       0.24263   0.10607   0.29100 
H          H       0.31517   0.13920   0.16171 
B          B       0.24102   0.17052   0.21731 
O          O       0.20173   0.17738   0.24979 
C          C       0.84070   0.57966   0.70001 
C          C       0.83591   0.55139   0.74007 
C          C       0.80021   0.56125   0.77253 
C          C       0.76989   0.59921   0.76533 
C          C       0.77496   0.62788   0.72549 
C          C       0.81062   0.61783   0.69290 
H          H       0.86748   0.57242   0.67407 
H          H       0.79575   0.53949   0.80345 
H          H       0.74263   0.60607   0.79100 
H          H       0.81517   0.63920   0.66171 
B          B       0.74102   0.67052   0.71731 
O          O       0.70173   0.67738   0.74979 
C          C       0.15930   0.92034   0.70001 
C          C       0.16409   0.94861   0.74007 
C          C       0.19979   0.93875   0.77253 
C          C       0.23011   0.90079   0.76533 
C          C       0.22504   0.87212   0.72549 
C          C       0.18938   0.88217   0.69290 
H          H       0.13252   0.92758   0.67407 
H          H       0.20425   0.96051   0.80345 
H          H       0.25737   0.89393   0.79100 
H          H       0.18483   0.86080   0.66171 
B          B       0.25898   0.82948   0.71731 
O          O       0.29827   0.82262   0.74979 
C          C       0.65930   0.42034   0.20001 
C          C       0.66409   0.44861   0.24007 
C          C       0.69979   0.43875   0.27253 
C          C       0.73011   0.40079   0.26533 
C          C       0.72504   0.37212   0.22549 
C          C       0.68938   0.38217   0.19290 
H          H       0.63252   0.42758   0.17407 
H          H       0.70425   0.46051   0.30345 
H          H       0.75737   0.39393   0.29100 
H          H       0.68483   0.36080   0.16171 
B          B       0.75898   0.32948   0.21731 
O          O       0.79827   0.32262   0.24979 
C          C       0.65930   0.57966   0.29999 
C          C       0.66409   0.55139   0.25993 
C          C       0.69979   0.56125   0.22747 
C          C       0.73011   0.59921   0.23467 
C          C       0.72504   0.62788   0.27451 
C          C       0.68938   0.61783   0.30710 
H          H       0.63252   0.57242   0.32593 
H          H       0.70425   0.53949   0.19655 
H          H       0.75737   0.60607   0.20900 
H          H       0.68483   0.63920   0.33829 
B          B       0.75898   0.67052   0.28269 
O          O       0.79827   0.67738   0.25021 
C          C       0.15930   0.07966   0.79999 
C          C       0.16409   0.05139   0.75993 
C          C       0.19979   0.06125   0.72747 
C          C       0.23011   0.09921   0.73467 
C          C       0.22504   0.12788   0.77451 
C          C       0.18938   0.11783   0.80710 
H          H       0.13252   0.07242   0.82593 
H          H       0.20425   0.03949   0.69655 
H          H       0.25737   0.10607   0.70900 
H          H       0.18483   0.13920   0.83829 
B          B       0.25898   0.17052   0.78269 
O          O       0.29827   0.17738   0.75021 
C          C       0.84070   0.42034   0.79999 
C          C       0.83591   0.44861   0.75993 
C          C       0.80021   0.43875   0.72747 
C          C       0.76989   0.40079   0.73467 
C          C       0.77496   0.37212   0.77451 
C          C       0.81062   0.38217   0.80710 
H          H       0.86748   0.42758   0.82593 
H          H       0.79575   0.46051   0.69655 
H          H       0.74263   0.39393   0.70900 
H          H       0.81517   0.36080   0.83829 
B          B       0.74102   0.32948   0.78269 
O          O       0.70173   0.32262   0.75021 
C          C       0.34070   0.92034   0.29999 
C          C       0.33591   0.94861   0.25993 
C          C       0.30021   0.93875   0.22747 
C          C       0.26989   0.90079   0.23467 
C          C       0.27496   0.87212   0.27451 
C          C       0.31062   0.88217   0.30710 
H          H       0.36748   0.92758   0.32593 
H          H       0.29575   0.96051   0.19655 
H          H       0.24263   0.89393   0.20900 
H          H       0.31517   0.86080   0.33829 
B          B       0.24102   0.82948   0.28269 
O          O       0.20173   0.82262   0.25021 
C          C       0.20001   0.34070   0.07966 
C          C       0.24007   0.33591   0.05139 
C          C       0.27253   0.30021   0.06125 
C          C       0.26533   0.26989   0.09921 
C          C       0.22549   0.27496   0.12788 
C          C       0.19290   0.31062   0.11783 
H          H       0.17407   0.36748   0.07242 
H          H       0.30345   0.29575   0.03949 
H          H       0.29100   0.24263   0.10607 
H          H       0.16171   0.31517   0.13920 
B          B       0.21731   0.24102   0.17052 
O          O       0.24979   0.20173   0.17738 
C          C       0.70001   0.84070   0.57966 
C          C       0.74007   0.83591   0.55139 
C          C       0.77253   0.80021   0.56125 
C          C       0.76533   0.76989   0.59921 
C          C       0.72549   0.77496   0.62788 
C          C       0.69290   0.81062   0.61783 
H          H       0.67407   0.86748   0.57242 
H          H       0.80345   0.79575   0.53949 
H          H       0.79100   0.74263   0.60607 
H          H       0.66171   0.81517   0.63920 
B          B       0.71731   0.74102   0.67052 
O          O       0.74979   0.70173   0.67738 
C          C       0.70001   0.15930   0.92034 
C          C       0.74007   0.16409   0.94861 
C          C       0.77253   0.19979   0.93875 
C          C       0.76533   0.23011   0.90079 
C          C       0.72549   0.22504   0.87212 
C          C       0.69290   0.18938   0.88217 
H          H       0.67407   0.13252   0.92758 
H          H       0.80345   0.20425   0.96051 
H          H       0.79100   0.25737   0.89393 
H          H       0.66171   0.18483   0.86080 
B          B       0.71731   0.25898   0.82948 
O          O       0.74979   0.29827   0.82262 
C          C       0.20001   0.65930   0.42034 
C          C       0.24007   0.66409   0.44861 
C          C       0.27253   0.69979   0.43875 
C          C       0.26533   0.73011   0.40079 
C          C       0.22549   0.72504   0.37212 
C          C       0.19290   0.68938   0.38217 
H          H       0.17407   0.63252   0.42758 
H          H       0.30345   0.70425   0.46051 
H          H       0.29100   0.75737   0.39393 
H          H       0.16171   0.68483   0.36080 
B          B       0.21731   0.75898   0.32948 
O          O       0.24979   0.79827   0.32262 
C          C       0.29999   0.65930   0.57966 
C          C       0.25993   0.66409   0.55139 
C          C       0.22747   0.69979   0.56125 
C          C       0.23467   0.73011   0.59921 
C          C       0.27451   0.72504   0.62788 
C          C       0.30710   0.68938   0.61783 
H          H       0.32593   0.63252   0.57242 
H          H       0.19655   0.70425   0.53949 
H          H       0.20900   0.75737   0.60607 
H          H       0.33829   0.68483   0.63920 
B          B       0.28269   0.75898   0.67052 
O          O       0.25021   0.79827   0.67738 
C          C       0.79999   0.15930   0.07966 
C          C       0.75993   0.16409   0.05139 
C          C       0.72747   0.19979   0.06125 
C          C       0.73467   0.23011   0.09921 
C          C       0.77451   0.22504   0.12788 
C          C       0.80710   0.18938   0.11783 
H          H       0.82593   0.13252   0.07242 
H          H       0.69655   0.20425   0.03949 
H          H       0.70900   0.25737   0.10607 
H          H       0.83829   0.18483   0.13920 
B          B       0.78269   0.25898   0.17052 
O          O       0.75021   0.29827   0.17738 
C          C       0.79999   0.84070   0.42034 
C          C       0.75993   0.83591   0.44861 
C          C       0.72747   0.80021   0.43875 
C          C       0.73467   0.76989   0.40079 
C          C       0.77451   0.77496   0.37212 
C          C       0.80710   0.81062   0.38217 
H          H       0.82593   0.86748   0.42758 
H          H       0.69655   0.79575   0.46051 
H          H       0.70900   0.74263   0.39393 
H          H       0.83829   0.81517   0.36080 
B          B       0.78269   0.74102   0.32948 
O          O       0.75021   0.70173   0.32262 
C          C       0.29999   0.34070   0.92034 
C          C       0.25993   0.33591   0.94861 
C          C       0.22747   0.30021   0.93875 
C          C       0.23467   0.26989   0.90079 
C          C       0.27451   0.27496   0.87212 
C          C       0.30710   0.31062   0.88217 
H          H       0.32593   0.36748   0.92758 
H          H       0.19655   0.29575   0.96051 
H          H       0.20900   0.24263   0.89393 
H          H       0.33829   0.31517   0.86080 
B          B       0.28269   0.24102   0.82948 
O          O       0.25021   0.20173   0.82262 
C          C       0.07966   0.20001   0.34070 
C          C       0.05139   0.24007   0.33591 
C          C       0.06125   0.27253   0.30021 
C          C       0.09921   0.26533   0.26989 
C          C       0.12788   0.22549   0.27496 
C          C       0.11783   0.19290   0.31062 
H          H       0.07242   0.17407   0.36748 
H          H       0.03949   0.30345   0.29575 
H          H       0.10607   0.29100   0.24263 
H          H       0.13920   0.16171   0.31517 
B          B       0.17052   0.21731   0.24102 
O          O       0.17738   0.24979   0.20173 
C          C       0.57966   0.70001   0.84070 
C          C       0.55139   0.74007   0.83591 
C          C       0.56125   0.77253   0.80021 
C          C       0.59921   0.76533   0.76989 
C          C       0.62788   0.72549   0.77496 
C          C       0.61783   0.69290   0.81062 
H          H       0.57242   0.67407   0.86748 
H          H       0.53949   0.80345   0.79575 
H          H       0.60607   0.79100   0.74263 
H          H       0.63920   0.66171   0.81517 
B          B       0.67052   0.71731   0.74102 
O          O       0.67738   0.74979   0.70173 
C          C       0.92034   0.70001   0.15930 
C          C       0.94861   0.74007   0.16409 
C          C       0.93875   0.77253   0.19979 
C          C       0.90079   0.76533   0.23011 
C          C       0.87212   0.72549   0.22504 
C          C       0.88217   0.69290   0.18938 
H          H       0.92758   0.67407   0.13252 
H          H       0.96051   0.80345   0.20425 
H          H       0.89393   0.79100   0.25737 
H          H       0.86080   0.66171   0.18483 
B          B       0.82948   0.71731   0.25898 
O          O       0.82262   0.74979   0.29827 
C          C       0.42034   0.20001   0.65930 
C          C       0.44861   0.24007   0.66409 
C          C       0.43875   0.27253   0.69979 
C          C       0.40079   0.26533   0.73011 
C          C       0.37212   0.22549   0.72504 
C          C       0.38217   0.19290   0.68938 
H          H       0.42758   0.17407   0.63252 
H          H       0.46051   0.30345   0.70425 
H          H       0.39393   0.29100   0.75737 
H          H       0.36080   0.16171   0.68483 
B          B       0.32948   0.21731   0.75898 
O          O       0.32262   0.24979   0.79827 
C          C       0.57966   0.29999   0.65930 
C          C       0.55139   0.25993   0.66409 
C          C       0.56125   0.22747   0.69979 
C          C       0.59921   0.23467   0.73011 
C          C       0.62788   0.27451   0.72504 
C          C       0.61783   0.30710   0.68938 
H          H       0.57242   0.32593   0.63252 
H          H       0.53949   0.19655   0.70425 
H          H       0.60607   0.20900   0.75737 
H          H       0.63920   0.33829   0.68483 
B          B       0.67052   0.28269   0.75898 
O          O       0.67738   0.25021   0.79827 
C          C       0.07966   0.79999   0.15930 
C          C       0.05139   0.75993   0.16409 
C          C       0.06125   0.72747   0.19979 
C          C       0.09921   0.73467   0.23011 
C          C       0.12788   0.77451   0.22504 
C          C       0.11783   0.80710   0.18938 
H          H       0.07242   0.82593   0.13252 
H          H       0.03949   0.69655   0.20425 
H          H       0.10607   0.70900   0.25737 
H          H       0.13920   0.83829   0.18483 
B          B       0.17052   0.78269   0.25898 
O          O       0.17738   0.75021   0.29827 
C          C       0.42034   0.79999   0.84070 
C          C       0.44861   0.75993   0.83591 
C          C       0.43875   0.72747   0.80021 
C          C       0.40079   0.73467   0.76989 
C          C       0.37212   0.77451   0.77496 
C          C       0.38217   0.80710   0.81062 
H          H       0.42758   0.82593   0.86748 
H          H       0.46051   0.69655   0.79575 
H          H       0.39393   0.70900   0.74263 
H          H       0.36080   0.83829   0.81517 
B          B       0.32948   0.78269   0.74102 
O          O       0.32262   0.75021   0.70173 
C          C       0.92034   0.29999   0.34070 
C          C       0.94861   0.25993   0.33591 
C          C       0.93875   0.22747   0.30021 
C          C       0.90079   0.23467   0.26989 
C          C       0.87212   0.27451   0.27496 
C          C       0.88217   0.30710   0.31062 
H          H       0.92758   0.32593   0.36748 
H          H       0.96051   0.19655   0.29575 
H          H       0.89393   0.20900   0.24263 
H          H       0.86080   0.33829   0.31517 
B          B       0.82948   0.28269   0.24102 
O          O       0.82262   0.25021   0.20173 
C          C       0.32966   0.59070   0.45001 
C          C       0.30139   0.58591   0.49007 
C          C       0.31125   0.55021   0.52253 
C          C       0.34921   0.51989   0.51533 
C          C       0.37788   0.52496   0.47549 
C          C       0.36783   0.56062   0.44290 
H          H       0.32242   0.61748   0.42407 
H          H       0.28949   0.54575   0.55345 
H          H       0.35607   0.49263   0.54100 
H          H       0.38920   0.56517   0.41171 
B          B       0.42052   0.49102   0.46731 
O          O       0.42738   0.45173   0.49979 
C          C       0.82966   0.09070   0.95001 
C          C       0.80139   0.08591   0.99007 
C          C       0.81125   0.05021   0.02253 
C          C       0.84921   0.01989   0.01533 
C          C       0.87788   0.02496   0.97549 
C          C       0.86783   0.06062   0.94290 
H          H       0.82242   0.11748   0.92407 
H          H       0.78949   0.04575   0.05345 
H          H       0.85607   0.99263   0.04100 
H          H       0.88920   0.06517   0.91171 
B          B       0.92052   0.99102   0.96731 
O          O       0.92738   0.95173   0.99979 
C          C       0.17034   0.40930   0.95001 
C          C       0.19861   0.41409   0.99007 
C          C       0.18875   0.44979   0.02253 
C          C       0.15079   0.48011   0.01533 
C          C       0.12212   0.47504   0.97549 
C          C       0.13217   0.43938   0.94290 
H          H       0.17758   0.38252   0.92407 
H          H       0.21051   0.45425   0.05345 
H          H       0.14393   0.50737   0.04100 
H          H       0.11080   0.43483   0.91171 
B          B       0.07948   0.50898   0.96731 
O          O       0.07262   0.54827   0.99979 
C          C       0.67034   0.90930   0.45001 
C          C       0.69861   0.91409   0.49007 
C          C       0.68875   0.94979   0.52253 
C          C       0.65079   0.98011   0.51533 
C          C       0.62212   0.97504   0.47549 
C          C       0.63217   0.93938   0.44290 
H          H       0.67758   0.88252   0.42407 
H          H       0.71051   0.95425   0.55345 
H          H       0.64393   0.00737   0.54100 
H          H       0.61080   0.93483   0.41171 
B          B       0.57948   0.00898   0.46731 
O          O       0.57262   0.04827   0.49979 
C          C       0.82966   0.90930   0.54999 
C          C       0.80139   0.91409   0.50993 
C          C       0.81125   0.94979   0.47747 
C          C       0.84921   0.98011   0.48467 
C          C       0.87788   0.97504   0.52451 
C          C       0.86783   0.93938   0.55710 
H          H       0.82242   0.88252   0.57593 
H          H       0.78949   0.95425   0.44655 
H          H       0.85607   0.00737   0.45900 
H          H       0.88920   0.93483   0.58829 
B          B       0.92052   0.00898   0.53269 
O          O       0.92738   0.04827   0.50021 
C          C       0.32966   0.40930   0.04999 
C          C       0.30139   0.41409   0.00993 
C          C       0.31125   0.44979   0.97747 
C          C       0.34921   0.48011   0.98467 
C          C       0.37788   0.47504   0.02451 
C          C       0.36783   0.43938   0.05710 
H          H       0.32242   0.38252   0.07593 
H          H       0.28949   0.45425   0.94655 
H          H       0.35607   0.50737   0.95900 
H          H       0.38920   0.43483   0.08829 
B          B       0.42052   0.50898   0.03269 
O          O       0.42738   0.54827   0.00021 
C          C       0.67034   0.09070   0.04999 
C          C       0.69861   0.08591   0.00993 
C          C       0.68875   0.05021   0.97747 
C          C       0.65079   0.01989   0.98467 
C          C       0.62212   0.02496   0.02451 
C          C       0.63217   0.06062   0.05710 
H          H       0.67758   0.11748   0.07593 
H          H       0.71051   0.04575   0.94655 
H          H       0.64393   0.99263   0.95900 
H          H       0.61080   0.06517   0.08829 
B          B       0.57948   0.99102   0.03269 
O          O       0.57262   0.95173   0.00021 
C          C       0.17034   0.59070   0.54999 
C          C       0.19861   0.58591   0.50993 
C          C       0.18875   0.55021   0.47747 
C          C       0.15079   0.51989   0.48467 
C          C       0.12212   0.52496   0.52451 
C          C       0.13217   0.56062   0.55710 
H          H       0.17758   0.61748   0.57593 
H          H       0.21051   0.54575   0.44655 
H          H       0.14393   0.49263   0.45900 
H          H       0.11080   0.56517   0.58829 
B          B       0.07948   0.49102   0.53269 
O          O       0.07262   0.45173   0.50021 
C          C       0.59070   0.45001   0.32966 
C          C       0.58591   0.49007   0.30139 
C          C       0.55021   0.52253   0.31125 
C          C       0.51989   0.51533   0.34921 
C          C       0.52496   0.47549   0.37788 
C          C       0.56062   0.44290   0.36783 
H          H       0.61748   0.42407   0.32242 
H          H       0.54575   0.55345   0.28949 
H          H       0.49263   0.54100   0.35607 
H          H       0.56517   0.41171   0.38920 
B          B       0.49102   0.46731   0.42052 
O          O       0.45173   0.49979   0.42738 
C          C       0.09070   0.95001   0.82966 
C          C       0.08591   0.99007   0.80139 
C          C       0.05021   0.02253   0.81125 
C          C       0.01989   0.01533   0.84921 
C          C       0.02496   0.97549   0.87788 
C          C       0.06062   0.94290   0.86783 
H          H       0.11748   0.92407   0.82242 
H          H       0.04575   0.05345   0.78949 
H          H       0.99263   0.04100   0.85607 
H          H       0.06517   0.91171   0.88920 
B          B       0.99102   0.96731   0.92052 
O          O       0.95173   0.99979   0.92738 
C          C       0.40930   0.95001   0.17034 
C          C       0.41409   0.99007   0.19861 
C          C       0.44979   0.02253   0.18875 
C          C       0.48011   0.01533   0.15079 
C          C       0.47504   0.97549   0.12212 
C          C       0.43938   0.94290   0.13217 
H          H       0.38252   0.92407   0.17758 
H          H       0.45425   0.05345   0.21051 
H          H       0.50737   0.04100   0.14393 
H          H       0.43483   0.91171   0.11080 
B          B       0.50898   0.96731   0.07948 
O          O       0.54827   0.99979   0.07262 
C          C       0.90930   0.45001   0.67034 
C          C       0.91409   0.49007   0.69861 
C          C       0.94979   0.52253   0.68875 
C          C       0.98011   0.51533   0.65079 
C          C       0.97504   0.47549   0.62212 
C          C       0.93938   0.44290   0.63217 
H          H       0.88252   0.42407   0.67758 
H          H       0.95425   0.55345   0.71051 
H          H       0.00737   0.54100   0.64393 
H          H       0.93483   0.41171   0.61080 
B          B       0.00898   0.46731   0.57948 
O          O       0.04827   0.49979   0.57262 
C          C       0.90930   0.54999   0.82966 
C          C       0.91409   0.50993   0.80139 
C          C       0.94979   0.47747   0.81125 
C          C       0.98011   0.48467   0.84921 
C          C       0.97504   0.52451   0.87788 
C          C       0.93938   0.55710   0.86783 
H          H       0.88252   0.57593   0.82242 
H          H       0.95425   0.44655   0.78949 
H          H       0.00737   0.45900   0.85607 
H          H       0.93483   0.58829   0.88920 
B          B       0.00898   0.53269   0.92052 
O          O       0.04827   0.50021   0.92738 
C          C       0.40930   0.04999   0.32966 
C          C       0.41409   0.00993   0.30139 
C          C       0.44979   0.97747   0.31125 
C          C       0.48011   0.98467   0.34921 
C          C       0.47504   0.02451   0.37788 
C          C       0.43938   0.05710   0.36783 
H          H       0.38252   0.07593   0.32242 
H          H       0.45425   0.94655   0.28949 
H          H       0.50737   0.95900   0.35607 
H          H       0.43483   0.08829   0.38920 
B          B       0.50898   0.03269   0.42052 
O          O       0.54827   0.00021   0.42738 
C          C       0.09070   0.04999   0.67034 
C          C       0.08591   0.00993   0.69861 
C          C       0.05021   0.97747   0.68875 
C          C       0.01989   0.98467   0.65079 
C          C       0.02496   0.02451   0.62212 
C          C       0.06062   0.05710   0.63217 
H          H       0.11748   0.07593   0.67758 
H          H       0.04575   0.94655   0.71051 
H          H       0.99263   0.95900   0.64393 
H          H       0.06517   0.08829   0.61080 
B          B       0.99102   0.03269   0.57948 
O          O       0.95173   0.00021   0.57262 
C          C       0.59070   0.54999   0.17034 
C          C       0.58591   0.50993   0.19861 
C          C       0.55021   0.47747   0.18875 
C          C       0.51989   0.48467   0.15079 
C          C       0.52496   0.52451   0.12212 
C          C       0.56062   0.55710   0.13217 
H          H       0.61748   0.57593   0.17758 
H          H       0.54575   0.44655   0.21051 
H          H       0.49263   0.45900   0.14393 
H          H       0.56517   0.58829   0.11080 
B          B       0.49102   0.53269   0.07948 
O          O       0.45173   0.50021   0.07262 
C          C       0.45001   0.32966   0.59070 
C          C       0.49007   0.30139   0.58591 
C          C       0.52253   0.31125   0.55021 
C          C       0.51533   0.34921   0.51989 
C          C       0.47549   0.37788   0.52496 
C          C       0.44290   0.36783   0.56062 
H          H       0.42407   0.32242   0.61748 
H          H       0.55345   0.28949   0.54575 
H          H       0.54100   0.35607   0.49263 
H          H       0.41171   0.38920   0.56517 
B          B       0.46731   0.42052   0.49102 
O          O       0.49979   0.42738   0.45173 
C          C       0.95001   0.82966   0.09070 
C          C       0.99007   0.80139   0.08591 
C          C       0.02253   0.81125   0.05021 
C          C       0.01533   0.84921   0.01989 
C          C       0.97549   0.87788   0.02496 
C          C       0.94290   0.86783   0.06062 
H          H       0.92407   0.82242   0.11748 
H          H       0.05345   0.78949   0.04575 
H          H       0.04100   0.85607   0.99263 
H          H       0.91171   0.88920   0.06517 
B          B       0.96731   0.92052   0.99102 
O          O       0.99979   0.92738   0.95173 
C          C       0.95001   0.17034   0.40930 
C          C       0.99007   0.19861   0.41409 
C          C       0.02253   0.18875   0.44979 
C          C       0.01533   0.15079   0.48011 
C          C       0.97549   0.12212   0.47504 
C          C       0.94290   0.13217   0.43938 
H          H       0.92407   0.17758   0.38252 
H          H       0.05345   0.21051   0.45425 
H          H       0.04100   0.14393   0.50737 
H          H       0.91171   0.11080   0.43483 
B          B       0.96731   0.07948   0.50898 
O          O       0.99979   0.07262   0.54827 
C          C       0.45001   0.67034   0.90930 
C          C       0.49007   0.69861   0.91409 
C          C       0.52253   0.68875   0.94979 
C          C       0.51533   0.65079   0.98011 
C          C       0.47549   0.62212   0.97504 
C          C       0.44290   0.63217   0.93938 
H          H       0.42407   0.67758   0.88252 
H          H       0.55345   0.71051   0.95425 
H          H       0.54100   0.64393   0.00737 
H          H       0.41171   0.61080   0.93483 
B          B       0.46731   0.57948   0.00898 
O          O       0.49979   0.57262   0.04827 
C          C       0.54999   0.82966   0.90930 
C          C       0.50993   0.80139   0.91409 
C          C       0.47747   0.81125   0.94979 
C          C       0.48467   0.84921   0.98011 
C          C       0.52451   0.87788   0.97504 
C          C       0.55710   0.86783   0.93938 
H          H       0.57593   0.82242   0.88252 
H          H       0.44655   0.78949   0.95425 
H          H       0.45900   0.85607   0.00737 
H          H       0.58829   0.88920   0.93483 
B          B       0.53269   0.92052   0.00898 
O          O       0.50021   0.92738   0.04827 
C          C       0.04999   0.32966   0.40930 
C          C       0.00993   0.30139   0.41409 
C          C       0.97747   0.31125   0.44979 
C          C       0.98467   0.34921   0.48011 
C          C       0.02451   0.37788   0.47504 
C          C       0.05710   0.36783   0.43938 
H          H       0.07593   0.32242   0.38252 
H          H       0.94655   0.28949   0.45425 
H          H       0.95900   0.35607   0.50737 
H          H       0.08829   0.38920   0.43483 
B          B       0.03269   0.42052   0.50898 
O          O       0.00021   0.42738   0.54827 
C          C       0.04999   0.67034   0.09070 
C          C       0.00993   0.69861   0.08591 
C          C       0.97747   0.68875   0.05021 
C          C       0.98467   0.65079   0.01989 
C          C       0.02451   0.62212   0.02496 
C          C       0.05710   0.63217   0.06062 
H          H       0.07593   0.67758   0.11748 
H          H       0.94655   0.71051   0.04575 
H          H       0.95900   0.64393   0.99263 
H          H       0.08829   0.61080   0.06517 
B          B       0.03269   0.57948   0.99102 
O          O       0.00021   0.57262   0.95173 
C          C       0.54999   0.17034   0.59070 
C          C       0.50993   0.19861   0.58591 
C          C       0.47747   0.18875   0.55021 
C          C       0.48467   0.15079   0.51989 
C          C       0.52451   0.12212   0.52496 
C          C       0.55710   0.13217   0.56062 
H          H       0.57593   0.17758   0.61748 
H          H       0.44655   0.21051   0.54575 
H          H       0.45900   0.14393   0.49263 
H          H       0.58829   0.11080   0.56517 
B          B       0.53269   0.07948   0.49102 
O          O       0.50021   0.07262   0.45173 
Si         Si      0.37500   0.00000   0.25000 
Si         Si      0.12500   0.00000   0.75000 
Si         Si      0.62500   0.50000   0.25000 
Si         Si      0.87500   0.50000   0.75000 
Si         Si      0.25000   0.37500   0.00000 
Si         Si      0.75000   0.12500   0.00000 
Si         Si      0.25000   0.62500   0.50000 
Si         Si      0.75000   0.87500   0.50000 
Si         Si      0.00000   0.25000   0.37500 
Si         Si      0.00000   0.75000   0.12500 
Si         Si      0.50000   0.25000   0.62500 
Si         Si      0.50000   0.75000   0.87500 
