data_crystal

_cell_length_a    27.17710
_cell_length_b    27.17710
_cell_length_c    27.17710
_cell_angle_alpha 90.00000
_cell_angle_beta  90.00000
_cell_angle_gamma 90.00000

_space_group_name_Hall 'P 1'
_space_group_name_H-M_alt  'P 1'

loop_
_symmetry_equiv_pos_as_xyz
'x,y,z' 

loop_
_atom_site_label
_atom_site_type_symbol
_atom_site_fract_x
_atom_site_fract_y
_atom_site_fract_z
O          O       0.82850   0.74693   0.30298 
B          B       0.83533   0.71325   0.26216 
C          C       0.90490   0.76629   0.22758 
H          H       0.89552   0.79460   0.25352 
C          C       0.87894   0.72231   0.22630 
C          C       0.93120   0.69419   0.16049 
H          H       0.94125   0.66415   0.13717 
C          C       0.95634   0.73930   0.15960 
C          C       0.89252   0.68630   0.19272 
H          H       0.87377   0.65150   0.19176 
C          C       0.94306   0.77459   0.19484 
H          H       0.96223   0.80911   0.19660 
O          O       0.32850   0.24693   0.80298 
B          B       0.33533   0.21325   0.76216 
C          C       0.40490   0.26629   0.72758 
H          H       0.39552   0.29460   0.75352 
C          C       0.37894   0.22231   0.72630 
C          C       0.43120   0.19419   0.66049 
H          H       0.44125   0.16415   0.63717 
C          C       0.45634   0.23930   0.65960 
C          C       0.39252   0.18630   0.69272 
H          H       0.37377   0.15150   0.69176 
C          C       0.44306   0.27459   0.69484 
H          H       0.46223   0.30911   0.69660 
O          O       0.67150   0.25307   0.80298 
B          B       0.66467   0.28675   0.76216 
C          C       0.59510   0.23371   0.72758 
H          H       0.60448   0.20540   0.75352 
C          C       0.62106   0.27769   0.72630 
C          C       0.56880   0.30581   0.66049 
H          H       0.55875   0.33585   0.63717 
C          C       0.54366   0.26070   0.65960 
C          C       0.60748   0.31370   0.69272 
H          H       0.62623   0.34850   0.69176 
C          C       0.55694   0.22541   0.69484 
H          H       0.53777   0.19089   0.69660 
O          O       0.17150   0.75307   0.30298 
B          B       0.16467   0.78675   0.26216 
C          C       0.09510   0.73371   0.22758 
H          H       0.10448   0.70540   0.25352 
C          C       0.12106   0.77769   0.22630 
C          C       0.06880   0.80581   0.16049 
H          H       0.05875   0.83585   0.13717 
C          C       0.04366   0.76070   0.15960 
C          C       0.10748   0.81370   0.19272 
H          H       0.12623   0.84850   0.19176 
C          C       0.05694   0.72541   0.19484 
H          H       0.03777   0.69089   0.19660 
O          O       0.17150   0.24693   0.19702 
B          B       0.16467   0.21325   0.23784 
C          C       0.09510   0.26629   0.27242 
H          H       0.10448   0.29460   0.24648 
C          C       0.12106   0.22231   0.27370 
C          C       0.06880   0.19419   0.33951 
H          H       0.05875   0.16415   0.36283 
C          C       0.04366   0.23930   0.34040 
C          C       0.10748   0.18630   0.30728 
H          H       0.12623   0.15150   0.30824 
C          C       0.05694   0.27459   0.30516 
H          H       0.03777   0.30911   0.30340 
O          O       0.67150   0.74693   0.69702 
B          B       0.66467   0.71325   0.73784 
C          C       0.59510   0.76629   0.77242 
H          H       0.60448   0.79460   0.74648 
C          C       0.62106   0.72231   0.77370 
C          C       0.56880   0.69419   0.83951 
H          H       0.55875   0.66415   0.86283 
C          C       0.54366   0.73930   0.84040 
C          C       0.60748   0.68630   0.80728 
H          H       0.62623   0.65150   0.80824 
C          C       0.55694   0.77459   0.80516 
H          H       0.53777   0.80911   0.80340 
O          O       0.32850   0.75307   0.69702 
B          B       0.33533   0.78675   0.73784 
C          C       0.40490   0.73371   0.77242 
H          H       0.39552   0.70540   0.74648 
C          C       0.37894   0.77769   0.77370 
C          C       0.43120   0.80581   0.83951 
H          H       0.44125   0.83585   0.86283 
C          C       0.45634   0.76070   0.84040 
C          C       0.39252   0.81370   0.80728 
H          H       0.37377   0.84850   0.80824 
C          C       0.44306   0.72541   0.80516 
H          H       0.46223   0.69089   0.80340 
O          O       0.82850   0.25307   0.19702 
B          B       0.83533   0.28675   0.23784 
C          C       0.90490   0.23371   0.27242 
H          H       0.89552   0.20540   0.24648 
C          C       0.87894   0.27769   0.27370 
C          C       0.93120   0.30581   0.33951 
H          H       0.94125   0.33585   0.36283 
C          C       0.95634   0.26070   0.34040 
C          C       0.89252   0.31370   0.30728 
H          H       0.87377   0.34850   0.30824 
C          C       0.94306   0.22541   0.30516 
H          H       0.96223   0.19089   0.30340 
O          O       0.30298   0.82850   0.74693 
B          B       0.26216   0.83533   0.71325 
C          C       0.22758   0.90490   0.76629 
H          H       0.25352   0.89552   0.79460 
C          C       0.22630   0.87894   0.72231 
C          C       0.16049   0.93120   0.69419 
H          H       0.13717   0.94125   0.66415 
C          C       0.15960   0.95634   0.73930 
C          C       0.19272   0.89252   0.68630 
H          H       0.19176   0.87377   0.65150 
C          C       0.19484   0.94306   0.77459 
H          H       0.19660   0.96223   0.80911 
O          O       0.80298   0.32850   0.24693 
B          B       0.76216   0.33533   0.21325 
C          C       0.72758   0.40490   0.26629 
H          H       0.75352   0.39552   0.29460 
C          C       0.72630   0.37894   0.22231 
C          C       0.66049   0.43120   0.19419 
H          H       0.63717   0.44125   0.16415 
C          C       0.65960   0.45634   0.23930 
C          C       0.69272   0.39252   0.18630 
H          H       0.69176   0.37377   0.15150 
C          C       0.69484   0.44306   0.27459 
H          H       0.69660   0.46223   0.30911 
O          O       0.80298   0.67150   0.25307 
B          B       0.76216   0.66467   0.28675 
C          C       0.72758   0.59510   0.23371 
H          H       0.75352   0.60448   0.20540 
C          C       0.72630   0.62106   0.27769 
C          C       0.66049   0.56880   0.30581 
H          H       0.63717   0.55875   0.33585 
C          C       0.65960   0.54366   0.26070 
C          C       0.69272   0.60748   0.31370 
H          H       0.69176   0.62623   0.34850 
C          C       0.69484   0.55694   0.22541 
H          H       0.69660   0.53777   0.19089 
O          O       0.30298   0.17150   0.75307 
B          B       0.26216   0.16467   0.78675 
C          C       0.22758   0.09510   0.73371 
H          H       0.25352   0.10448   0.70540 
C          C       0.22630   0.12106   0.77769 
C          C       0.16049   0.06880   0.80581 
H          H       0.13717   0.05875   0.83585 
C          C       0.15960   0.04366   0.76070 
C          C       0.19272   0.10748   0.81370 
H          H       0.19176   0.12623   0.84850 
C          C       0.19484   0.05694   0.72541 
H          H       0.19660   0.03777   0.69089 
O          O       0.19702   0.17150   0.24693 
B          B       0.23784   0.16467   0.21325 
C          C       0.27242   0.09510   0.26629 
H          H       0.24648   0.10448   0.29460 
C          C       0.27370   0.12106   0.22231 
C          C       0.33951   0.06880   0.19419 
H          H       0.36283   0.05875   0.16415 
C          C       0.34040   0.04366   0.23930 
C          C       0.30728   0.10748   0.18630 
H          H       0.30824   0.12623   0.15150 
C          C       0.30516   0.05694   0.27459 
H          H       0.30340   0.03777   0.30911 
O          O       0.69702   0.67150   0.74693 
B          B       0.73784   0.66467   0.71325 
C          C       0.77242   0.59510   0.76629 
H          H       0.74648   0.60448   0.79460 
C          C       0.77370   0.62106   0.72231 
C          C       0.83951   0.56880   0.69419 
H          H       0.86283   0.55875   0.66415 
C          C       0.84040   0.54366   0.73930 
C          C       0.80728   0.60748   0.68630 
H          H       0.80824   0.62623   0.65150 
C          C       0.80516   0.55694   0.77459 
H          H       0.80340   0.53777   0.80911 
O          O       0.69702   0.32850   0.75307 
B          B       0.73784   0.33533   0.78675 
C          C       0.77242   0.40490   0.73371 
H          H       0.74648   0.39552   0.70540 
C          C       0.77370   0.37894   0.77769 
C          C       0.83951   0.43120   0.80581 
H          H       0.86283   0.44125   0.83585 
C          C       0.84040   0.45634   0.76070 
C          C       0.80728   0.39252   0.81370 
H          H       0.80824   0.37377   0.84850 
C          C       0.80516   0.44306   0.72541 
H          H       0.80340   0.46223   0.69089 
O          O       0.19702   0.82850   0.25307 
B          B       0.23784   0.83533   0.28675 
C          C       0.27242   0.90490   0.23371 
H          H       0.24648   0.89552   0.20540 
C          C       0.27370   0.87894   0.27769 
C          C       0.33951   0.93120   0.30581 
H          H       0.36283   0.94125   0.33585 
C          C       0.34040   0.95634   0.26070 
C          C       0.30728   0.89252   0.31370 
H          H       0.30824   0.87377   0.34850 
C          C       0.30516   0.94306   0.22541 
H          H       0.30340   0.96223   0.19089 
O          O       0.74693   0.30298   0.82850 
B          B       0.71325   0.26216   0.83533 
C          C       0.76629   0.22758   0.90490 
H          H       0.79460   0.25352   0.89552 
C          C       0.72231   0.22630   0.87894 
C          C       0.69419   0.16049   0.93120 
H          H       0.66415   0.13717   0.94125 
C          C       0.73930   0.15960   0.95634 
C          C       0.68630   0.19272   0.89252 
H          H       0.65150   0.19176   0.87377 
C          C       0.77459   0.19484   0.94306 
H          H       0.80911   0.19660   0.96223 
O          O       0.24693   0.80298   0.32850 
B          B       0.21325   0.76216   0.33533 
C          C       0.26629   0.72758   0.40490 
H          H       0.29460   0.75352   0.39552 
C          C       0.22231   0.72630   0.37894 
C          C       0.19419   0.66049   0.43120 
H          H       0.16415   0.63717   0.44125 
C          C       0.23930   0.65960   0.45634 
C          C       0.18630   0.69272   0.39252 
H          H       0.15150   0.69176   0.37377 
C          C       0.27459   0.69484   0.44306 
H          H       0.30911   0.69660   0.46223 
O          O       0.25307   0.80298   0.67150 
B          B       0.28675   0.76216   0.66467 
C          C       0.23371   0.72758   0.59510 
H          H       0.20540   0.75352   0.60448 
C          C       0.27769   0.72630   0.62106 
C          C       0.30581   0.66049   0.56880 
H          H       0.33585   0.63717   0.55875 
C          C       0.26070   0.65960   0.54366 
C          C       0.31370   0.69272   0.60748 
H          H       0.34850   0.69176   0.62623 
C          C       0.22541   0.69484   0.55694 
H          H       0.19089   0.69660   0.53777 
O          O       0.75307   0.30298   0.17150 
B          B       0.78675   0.26216   0.16467 
C          C       0.73371   0.22758   0.09510 
H          H       0.70540   0.25352   0.10448 
C          C       0.77769   0.22630   0.12106 
C          C       0.80581   0.16049   0.06880 
H          H       0.83585   0.13717   0.05875 
C          C       0.76070   0.15960   0.04366 
C          C       0.81370   0.19272   0.10748 
H          H       0.84850   0.19176   0.12623 
C          C       0.72541   0.19484   0.05694 
H          H       0.69089   0.19660   0.03777 
O          O       0.24693   0.19702   0.17150 
B          B       0.21325   0.23784   0.16467 
C          C       0.26629   0.27242   0.09510 
H          H       0.29460   0.24648   0.10448 
C          C       0.22231   0.27370   0.12106 
C          C       0.19419   0.33951   0.06880 
H          H       0.16415   0.36283   0.05875 
C          C       0.23930   0.34040   0.04366 
C          C       0.18630   0.30728   0.10748 
H          H       0.15150   0.30824   0.12623 
C          C       0.27459   0.30516   0.05694 
H          H       0.30911   0.30340   0.03777 
O          O       0.74693   0.69702   0.67150 
B          B       0.71325   0.73784   0.66467 
C          C       0.76629   0.77242   0.59510 
H          H       0.79460   0.74648   0.60448 
C          C       0.72231   0.77370   0.62106 
C          C       0.69419   0.83951   0.56880 
H          H       0.66415   0.86283   0.55875 
C          C       0.73930   0.84040   0.54366 
C          C       0.68630   0.80728   0.60748 
H          H       0.65150   0.80824   0.62623 
C          C       0.77459   0.80516   0.55694 
H          H       0.80911   0.80340   0.53777 
O          O       0.75307   0.69702   0.32850 
B          B       0.78675   0.73784   0.33533 
C          C       0.73371   0.77242   0.40490 
H          H       0.70540   0.74648   0.39552 
C          C       0.77769   0.77370   0.37894 
C          C       0.80581   0.83951   0.43120 
H          H       0.83585   0.86283   0.44125 
C          C       0.76070   0.84040   0.45634 
C          C       0.81370   0.80728   0.39252 
H          H       0.84850   0.80824   0.37377 
C          C       0.72541   0.80516   0.44306 
H          H       0.69089   0.80340   0.46223 
O          O       0.25307   0.19702   0.82850 
B          B       0.28675   0.23784   0.83533 
C          C       0.23371   0.27242   0.90490 
H          H       0.20540   0.24648   0.89552 
C          C       0.27769   0.27370   0.87894 
C          C       0.30581   0.33951   0.93120 
H          H       0.33585   0.36283   0.94125 
C          C       0.26070   0.34040   0.95634 
C          C       0.31370   0.30728   0.89252 
H          H       0.34850   0.30824   0.87377 
C          C       0.22541   0.30516   0.94306 
H          H       0.19089   0.30340   0.96223 
O          O       0.99693   0.07850   0.55298 
B          B       0.96325   0.08533   0.51216 
C          C       0.01629   0.15490   0.47758 
H          H       0.04460   0.14552   0.50352 
C          C       0.97231   0.12894   0.47630 
C          C       0.94419   0.18120   0.41049 
H          H       0.91415   0.19125   0.38717 
C          C       0.98930   0.20634   0.40960 
C          C       0.93630   0.14252   0.44272 
H          H       0.90150   0.12377   0.44176 
C          C       0.02459   0.19306   0.44484 
H          H       0.05911   0.21223   0.44660 
O          O       0.49693   0.57850   0.05298 
B          B       0.46325   0.58533   0.01216 
C          C       0.51629   0.65490   0.97758 
H          H       0.54460   0.64552   0.00352 
C          C       0.47231   0.62894   0.97630 
C          C       0.44419   0.68120   0.91049 
H          H       0.41415   0.69125   0.88717 
C          C       0.48930   0.70634   0.90960 
C          C       0.43630   0.64252   0.94272 
H          H       0.40150   0.62377   0.94176 
C          C       0.52459   0.69306   0.94484 
H          H       0.55911   0.71223   0.94660 
O          O       0.50307   0.92150   0.05298 
B          B       0.53675   0.91467   0.01216 
C          C       0.48371   0.84510   0.97758 
H          H       0.45540   0.85448   0.00352 
C          C       0.52769   0.87106   0.97630 
C          C       0.55581   0.81880   0.91049 
H          H       0.58585   0.80875   0.88717 
C          C       0.51070   0.79366   0.90960 
C          C       0.56370   0.85748   0.94272 
H          H       0.59850   0.87623   0.94176 
C          C       0.47541   0.80694   0.94484 
H          H       0.44089   0.78777   0.94660 
O          O       0.00307   0.42150   0.55298 
B          B       0.03675   0.41467   0.51216 
C          C       0.98371   0.34510   0.47758 
H          H       0.95540   0.35448   0.50352 
C          C       0.02769   0.37106   0.47630 
C          C       0.05581   0.31880   0.41049 
H          H       0.08585   0.30875   0.38717 
C          C       0.01070   0.29366   0.40960 
C          C       0.06370   0.35748   0.44272 
H          H       0.09850   0.37623   0.44176 
C          C       0.97541   0.30694   0.44484 
H          H       0.94089   0.28777   0.44660 
O          O       0.49693   0.42150   0.44702 
B          B       0.46325   0.41467   0.48784 
C          C       0.51629   0.34510   0.52242 
H          H       0.54460   0.35448   0.49648 
C          C       0.47231   0.37106   0.52370 
C          C       0.44419   0.31880   0.58951 
H          H       0.41415   0.30875   0.61283 
C          C       0.48930   0.29366   0.59040 
C          C       0.43630   0.35748   0.55728 
H          H       0.40150   0.37623   0.55824 
C          C       0.52459   0.30694   0.55516 
H          H       0.55911   0.28777   0.55340 
O          O       0.99693   0.92150   0.94702 
B          B       0.96325   0.91467   0.98784 
C          C       0.01629   0.84510   0.02242 
H          H       0.04460   0.85448   0.99648 
C          C       0.97231   0.87106   0.02370 
C          C       0.94419   0.81880   0.08951 
H          H       0.91415   0.80875   0.11283 
C          C       0.98930   0.79366   0.09040 
C          C       0.93630   0.85748   0.05728 
H          H       0.90150   0.87623   0.05824 
C          C       0.02459   0.80694   0.05516 
H          H       0.05911   0.78777   0.05340 
O          O       0.00307   0.57850   0.94702 
B          B       0.03675   0.58533   0.98784 
C          C       0.98371   0.65490   0.02242 
H          H       0.95540   0.64552   0.99648 
C          C       0.02769   0.62894   0.02370 
C          C       0.05581   0.68120   0.08951 
H          H       0.08585   0.69125   0.11283 
C          C       0.01070   0.70634   0.09040 
C          C       0.06370   0.64252   0.05728 
H          H       0.09850   0.62377   0.05824 
C          C       0.97541   0.69306   0.05516 
H          H       0.94089   0.71223   0.05340 
O          O       0.50307   0.07850   0.44702 
B          B       0.53675   0.08533   0.48784 
C          C       0.48371   0.15490   0.52242 
H          H       0.45540   0.14552   0.49648 
C          C       0.52769   0.12894   0.52370 
C          C       0.55581   0.18120   0.58951 
H          H       0.58585   0.19125   0.61283 
C          C       0.51070   0.20634   0.59040 
C          C       0.56370   0.14252   0.55728 
H          H       0.59850   0.12377   0.55824 
C          C       0.47541   0.19306   0.55516 
H          H       0.44089   0.21223   0.55340 
O          O       0.07850   0.55298   0.99693 
B          B       0.08533   0.51216   0.96325 
C          C       0.15490   0.47758   0.01629 
H          H       0.14552   0.50352   0.04460 
C          C       0.12894   0.47630   0.97231 
C          C       0.18120   0.41049   0.94419 
H          H       0.19125   0.38717   0.91415 
C          C       0.20634   0.40960   0.98930 
C          C       0.14252   0.44272   0.93630 
H          H       0.12377   0.44176   0.90150 
C          C       0.19306   0.44484   0.02459 
H          H       0.21223   0.44660   0.05911 
O          O       0.57850   0.05298   0.49693 
B          B       0.58533   0.01216   0.46325 
C          C       0.65490   0.97758   0.51629 
H          H       0.64552   0.00352   0.54460 
C          C       0.62894   0.97630   0.47231 
C          C       0.68120   0.91049   0.44419 
H          H       0.69125   0.88717   0.41415 
C          C       0.70634   0.90960   0.48930 
C          C       0.64252   0.94272   0.43630 
H          H       0.62377   0.94176   0.40150 
C          C       0.69306   0.94484   0.52459 
H          H       0.71223   0.94660   0.55911 
O          O       0.92150   0.05298   0.50307 
B          B       0.91467   0.01216   0.53675 
C          C       0.84510   0.97758   0.48371 
H          H       0.85448   0.00352   0.45540 
C          C       0.87106   0.97630   0.52769 
C          C       0.81880   0.91049   0.55581 
H          H       0.80875   0.88717   0.58585 
C          C       0.79366   0.90960   0.51070 
C          C       0.85748   0.94272   0.56370 
H          H       0.87623   0.94176   0.59850 
C          C       0.80694   0.94484   0.47541 
H          H       0.78777   0.94660   0.44089 
O          O       0.42150   0.55298   0.00307 
B          B       0.41467   0.51216   0.03675 
C          C       0.34510   0.47758   0.98371 
H          H       0.35448   0.50352   0.95540 
C          C       0.37106   0.47630   0.02769 
C          C       0.31880   0.41049   0.05581 
H          H       0.30875   0.38717   0.08585 
C          C       0.29366   0.40960   0.01070 
C          C       0.35748   0.44272   0.06370 
H          H       0.37623   0.44176   0.09850 
C          C       0.30694   0.44484   0.97541 
H          H       0.28777   0.44660   0.94089 
O          O       0.42150   0.44702   0.49693 
B          B       0.41467   0.48784   0.46325 
C          C       0.34510   0.52242   0.51629 
H          H       0.35448   0.49648   0.54460 
C          C       0.37106   0.52370   0.47231 
C          C       0.31880   0.58951   0.44419 
H          H       0.30875   0.61283   0.41415 
C          C       0.29366   0.59040   0.48930 
C          C       0.35748   0.55728   0.43630 
H          H       0.37623   0.55824   0.40150 
C          C       0.30694   0.55516   0.52459 
H          H       0.28777   0.55340   0.55911 
O          O       0.92150   0.94702   0.99693 
B          B       0.91467   0.98784   0.96325 
C          C       0.84510   0.02242   0.01629 
H          H       0.85448   0.99648   0.04460 
C          C       0.87106   0.02370   0.97231 
C          C       0.81880   0.08951   0.94419 
H          H       0.80875   0.11283   0.91415 
C          C       0.79366   0.09040   0.98930 
C          C       0.85748   0.05728   0.93630 
H          H       0.87623   0.05824   0.90150 
C          C       0.80694   0.05516   0.02459 
H          H       0.78777   0.05340   0.05911 
O          O       0.57850   0.94702   0.00307 
B          B       0.58533   0.98784   0.03675 
C          C       0.65490   0.02242   0.98371 
H          H       0.64552   0.99648   0.95540 
C          C       0.62894   0.02370   0.02769 
C          C       0.68120   0.08951   0.05581 
H          H       0.69125   0.11283   0.08585 
C          C       0.70634   0.09040   0.01070 
C          C       0.64252   0.05728   0.06370 
H          H       0.62377   0.05824   0.09850 
C          C       0.69306   0.05516   0.97541 
H          H       0.71223   0.05340   0.94089 
O          O       0.07850   0.44702   0.50307 
B          B       0.08533   0.48784   0.53675 
C          C       0.15490   0.52242   0.48371 
H          H       0.14552   0.49648   0.45540 
C          C       0.12894   0.52370   0.52769 
C          C       0.18120   0.58951   0.55581 
H          H       0.19125   0.61283   0.58585 
C          C       0.20634   0.59040   0.51070 
C          C       0.14252   0.55728   0.56370 
H          H       0.12377   0.55824   0.59850 
C          C       0.19306   0.55516   0.47541 
H          H       0.21223   0.55340   0.44089 
O          O       0.55298   0.99693   0.07850 
B          B       0.51216   0.96325   0.08533 
C          C       0.47758   0.01629   0.15490 
H          H       0.50352   0.04460   0.14552 
C          C       0.47630   0.97231   0.12894 
C          C       0.41049   0.94419   0.18120 
H          H       0.38717   0.91415   0.19125 
C          C       0.40960   0.98930   0.20634 
C          C       0.44272   0.93630   0.14252 
H          H       0.44176   0.90150   0.12377 
C          C       0.44484   0.02459   0.19306 
H          H       0.44660   0.05911   0.21223 
O          O       0.05298   0.49693   0.57850 
B          B       0.01216   0.46325   0.58533 
C          C       0.97758   0.51629   0.65490 
H          H       0.00352   0.54460   0.64552 
C          C       0.97630   0.47231   0.62894 
C          C       0.91049   0.44419   0.68120 
H          H       0.88717   0.41415   0.69125 
C          C       0.90960   0.48930   0.70634 
C          C       0.94272   0.43630   0.64252 
H          H       0.94176   0.40150   0.62377 
C          C       0.94484   0.52459   0.69306 
H          H       0.94660   0.55911   0.71223 
O          O       0.05298   0.50307   0.92150 
B          B       0.01216   0.53675   0.91467 
C          C       0.97758   0.48371   0.84510 
H          H       0.00352   0.45540   0.85448 
C          C       0.97630   0.52769   0.87106 
C          C       0.91049   0.55581   0.81880 
H          H       0.88717   0.58585   0.80875 
C          C       0.90960   0.51070   0.79366 
C          C       0.94272   0.56370   0.85748 
H          H       0.94176   0.59850   0.87623 
C          C       0.94484   0.47541   0.80694 
H          H       0.94660   0.44089   0.78777 
O          O       0.55298   0.00307   0.42150 
B          B       0.51216   0.03675   0.41467 
C          C       0.47758   0.98371   0.34510 
H          H       0.50352   0.95540   0.35448 
C          C       0.47630   0.02769   0.37106 
C          C       0.41049   0.05581   0.31880 
H          H       0.38717   0.08585   0.30875 
C          C       0.40960   0.01070   0.29366 
C          C       0.44272   0.06370   0.35748 
H          H       0.44176   0.09850   0.37623 
C          C       0.44484   0.97541   0.30694 
H          H       0.44660   0.94089   0.28777 
O          O       0.44702   0.49693   0.42150 
B          B       0.48784   0.46325   0.41467 
C          C       0.52242   0.51629   0.34510 
H          H       0.49648   0.54460   0.35448 
C          C       0.52370   0.47231   0.37106 
C          C       0.58951   0.44419   0.31880 
H          H       0.61283   0.41415   0.30875 
C          C       0.59040   0.48930   0.29366 
C          C       0.55728   0.43630   0.35748 
H          H       0.55824   0.40150   0.37623 
C          C       0.55516   0.52459   0.30694 
H          H       0.55340   0.55911   0.28777 
O          O       0.94702   0.99693   0.92150 
B          B       0.98784   0.96325   0.91467 
C          C       0.02242   0.01629   0.84510 
H          H       0.99648   0.04460   0.85448 
C          C       0.02370   0.97231   0.87106 
C          C       0.08951   0.94419   0.81880 
H          H       0.11283   0.91415   0.80875 
C          C       0.09040   0.98930   0.79366 
C          C       0.05728   0.93630   0.85748 
H          H       0.05824   0.90150   0.87623 
C          C       0.05516   0.02459   0.80694 
H          H       0.05340   0.05911   0.78777 
O          O       0.94702   0.00307   0.57850 
B          B       0.98784   0.03675   0.58533 
C          C       0.02242   0.98371   0.65490 
H          H       0.99648   0.95540   0.64552 
C          C       0.02370   0.02769   0.62894 
C          C       0.08951   0.05581   0.68120 
H          H       0.11283   0.08585   0.69125 
C          C       0.09040   0.01070   0.70634 
C          C       0.05728   0.06370   0.64252 
H          H       0.05824   0.09850   0.62377 
C          C       0.05516   0.97541   0.69306 
H          H       0.05340   0.94089   0.71223 
O          O       0.44702   0.50307   0.07850 
B          B       0.48784   0.53675   0.08533 
C          C       0.52242   0.48371   0.15490 
H          H       0.49648   0.45540   0.14552 
C          C       0.52370   0.52769   0.12894 
C          C       0.58951   0.55581   0.18120 
H          H       0.61283   0.58585   0.19125 
C          C       0.59040   0.51070   0.20634 
C          C       0.55728   0.56370   0.14252 
H          H       0.55824   0.59850   0.12377 
C          C       0.55516   0.47541   0.19306 
H          H       0.55340   0.44089   0.21223 
C          C       0.00000   0.75000   0.12500 
C          C       0.50000   0.25000   0.62500 
C          C       0.00000   0.25000   0.37500 
C          C       0.50000   0.75000   0.87500 
C          C       0.12500   0.00000   0.75000 
C          C       0.62500   0.50000   0.25000 
C          C       0.37500   0.00000   0.25000 
C          C       0.87500   0.50000   0.75000 
C          C       0.75000   0.12500   0.00000 
C          C       0.25000   0.62500   0.50000 
C          C       0.25000   0.37500   0.00000 
C          C       0.75000   0.87500   0.50000 
