data_crystal
 
_cell_length_a    21.42370
_cell_length_b    21.42370
_cell_length_c    3.56550
_cell_angle_alpha 90.00000
_cell_angle_beta  90.00000
_cell_angle_gamma 120.00000
 
_symmetry_space_group_name_Hall 'P 1'
_symmetry_space_group_name_H-M  'P 1'
 
loop_
_symmetry_equiv_pos_as_xyz
 'x,y,z' 
 
loop_
_atom_site_label
_atom_site_type_symbol
_atom_site_fract_x
_atom_site_fract_y
_atom_site_fract_z
_atom_site_charge
C          C       0.56718   0.00000   0.50000   0.0000000000
C          C      -0.00000   0.56718   0.50000   0.0000000000
C          C       0.43282   0.43282   0.50000   0.0000000000
C          C       0.43282   0.00000   0.50000   0.0000000000
C          C      -0.00000   0.43282   0.50000   0.0000000000
C          C       0.56718   0.56718   0.50000   0.0000000000
C          C       0.56502   0.06441   0.50000   0.0000000000
C          C       0.93559   0.50061   0.50000   0.0000000000
C          C       0.49939   0.43498   0.50000   0.0000000000
C          C       0.43498   0.93559   0.50000   0.0000000000
C          C       0.06441   0.49939   0.50000   0.0000000000
C          C       0.50061   0.56502   0.50000   0.0000000000
C          C       0.06441   0.56502   0.50000   0.0000000000
C          C       0.50061   0.93559   0.50000   0.0000000000
C          C       0.43498   0.49939   0.50000   0.0000000000
C          C       0.93559   0.43498   0.50000   0.0000000000
C          C       0.49939   0.06441   0.50000   0.0000000000
C          C       0.56502   0.50061   0.50000   0.0000000000
O          O       0.62128   0.13215   0.50000   0.0000000000
O          O       0.86785   0.48912   0.50000   0.0000000000
O          O       0.51088   0.37872   0.50000   0.0000000000
O          O       0.37872   0.86785   0.50000   0.0000000000
O          O       0.13215   0.51088   0.50000   0.0000000000
O          O       0.48912   0.62128   0.50000   0.0000000000
O          O       0.13215   0.62128   0.50000   0.0000000000
O          O       0.48912   0.86785   0.50000   0.0000000000
O          O       0.37872   0.51088   0.50000   0.0000000000
O          O       0.86785   0.37872   0.50000   0.0000000000
O          O       0.51088   0.13215   0.50000   0.0000000000
O          O       0.62128   0.48912   0.50000   0.0000000000
C          C       0.62842   0.25685   0.50000   0.0000000000
C          C       0.74315   0.37158   0.50000   0.0000000000
C          C       0.62842   0.37158   0.50000   0.0000000000
C          C       0.37158   0.74315   0.50000   0.0000000000
C          C       0.25685   0.62842   0.50000   0.0000000000
C          C       0.37158   0.62842   0.50000   0.0000000000
B          B       0.58827   0.17653   0.50000   0.0000000000
B          B       0.82347   0.41173   0.50000   0.0000000000
B          B       0.58827   0.41173   0.50000   0.0000000000
B          B       0.41173   0.82347   0.50000   0.0000000000
B          B       0.17653   0.58827   0.50000   0.0000000000
B          B       0.41173   0.58827   0.50000   0.0000000000
C          C       0.29543   0.59085   0.50000   0.0000000000
C          C       0.40915   0.70457   0.50000   0.0000000000
C          C       0.29543   0.70457   0.50000   0.0000000000
C          C       0.70457   0.40915   0.50000   0.0000000000
C          C       0.59085   0.29543   0.50000   0.0000000000
C          C       0.70457   0.29543   0.50000   0.0000000000
H          H       0.38529   0.38529   0.50000   0.0000000000
H          H       0.61471   0.00000   0.50000   0.0000000000
H          H      -0.00000   0.61471   0.50000   0.0000000000
H          H       0.61471   0.61471   0.50000   0.0000000000
H          H       0.38529   0.00000   0.50000   0.0000000000
H          H       0.00000   0.38529   0.50000   0.0000000000
H          H       0.46470   0.73235   0.50000   0.0000000000
H          H       0.26765   0.73235   0.50000   0.0000000000
H          H       0.26765   0.53530   0.50000   0.0000000000
H          H       0.53530   0.26765   0.50000   0.0000000000
H          H       0.73235   0.26765   0.50000   0.0000000000
H          H       0.73235   0.46470   0.50000   0.0000000000
