data_crystal
 
_cell_length_a    21.69110
_cell_length_b    21.70990
_cell_length_c    8.22240
_cell_angle_alpha 90.00000
_cell_angle_beta  90.00000
_cell_angle_gamma 120.17250
 
_space_group_name_Hall 'P 1'
_space_group_name_H-M_alt  'P 1'
 
loop_
_symmetry_equiv_pos_as_xyz
 'x,y,z' 
 
loop_
_atom_site_label
_atom_site_type_symbol
_atom_site_fract_x
_atom_site_fract_y
_atom_site_fract_z
C          C       0.57295   0.00420   0.25000 
C          C       0.99791   0.56928   0.25000 
C          C       0.43283   0.42906   0.25000 
C          C       0.42927   0.99691   0.25000 
C          C       0.00464   0.43272   0.25000 
C          C       0.56956   0.57300   0.25000 
C          C       0.56763   0.06674   0.25000 
C          C       0.93568   0.50128   0.25000 
C          C       0.50087   0.43519   0.25000 
C          C       0.43515   0.93501   0.25000 
C          C       0.06687   0.50072   0.25000 
C          C       0.50152   0.56686   0.25000 
O          O       0.62079   0.13558   0.25000 
O          O       0.86742   0.48708   0.25000 
O          O       0.51506   0.38124   0.25000 
O          O       0.38143   0.86647   0.25000 
O          O       0.13516   0.51497   0.25000 
O          O       0.48733   0.62080   0.25000 
C          C       0.06636   0.56839   0.25000 
C          C       0.43376   0.49836   0.25000 
C          C       0.50355   0.93623   0.25000 
C          C       0.93619   0.43361   0.25000 
C          C       0.56863   0.50369   0.25000 
C          C       0.49882   0.06558   0.25000 
O          O       0.13775   0.62590   0.25000 
O          O       0.37624   0.51195   0.25000 
O          O       0.49084   0.86559   0.25000 
O          O       0.86479   0.37613   0.25000 
O          O       0.62613   0.49010   0.25000 
O          O       0.51174   0.13648   0.25000 
C          C       0.62884   0.25892   0.25000 
C          C       0.74320   0.37177   0.25000 
C          C       0.63042   0.37295   0.25000 
C          C       0.37371   0.74327   0.25000 
C          C       0.25934   0.63037   0.25000 
C          C       0.37211   0.62921   0.25000 
B          B       0.58837   0.17952   0.25000 
B          B       0.82267   0.41055   0.25000 
B          B       0.59167   0.41343   0.25000 
B          B       0.41413   0.82268   0.25000 
B          B       0.17987   0.59150   0.25000 
B          B       0.41075   0.58863   0.25000 
C          C       0.29680   0.59275   0.25000 
C          C       0.41003   0.70449   0.25000 
C          C       0.29839   0.70561   0.25000 
C          C       0.70574   0.40940   0.25000 
C          C       0.59255   0.29769   0.25000 
C          C       0.70415   0.29654   0.25000 
H          H       0.46490   0.73145   0.25000 
H          H       0.27142   0.73330   0.25000 
H          H       0.26885   0.53797   0.25000 
H          H       0.53773   0.27064   0.25000 
H          H       0.73102   0.26878   0.25000 
H          H       0.73368   0.46417   0.25000 
H          H       0.71483   0.10379   0.35669 
H          H       0.63826   0.96911   0.35625 
H          H       0.71166   0.61912   0.14391 
H          H       0.63213   0.67414   0.14374 
H          H       0.29074   0.38294   0.14392 
H          H       0.37030   0.32797   0.14370 
H          H       0.38311   0.09256   0.14394 
H          H       0.32809   0.95782   0.14369 
H          H       0.90800   0.29076   0.14391 
H          H       0.04297   0.37024   0.14369 
H          H       0.09449   0.71127   0.14391 
H          H       0.95951   0.63170   0.14370 
H          H       0.71483   0.10379   0.14331 
H          H       0.63826   0.96911   0.14375 
H          H       0.71166   0.61912   0.35609 
H          H       0.63213   0.67414   0.35626 
H          H       0.29074   0.38294   0.35607 
H          H       0.37030   0.32797   0.35630 
H          H       0.38311   0.09256   0.35607 
H          H       0.32809   0.95782   0.35630 
H          H       0.90800   0.29076   0.35609 
H          H       0.04297   0.37024   0.35630 
H          H       0.09449   0.71127   0.35608 
H          H       0.95951   0.63170   0.35629 
C          C       0.71133   0.07226   0.25000 
C          C       0.63983   0.00024   0.25000 
H          H       0.75677   0.06364   0.25000 
C          C       0.70751   0.64711   0.25000 
C          C       0.63493   0.64530   0.25000 
H          H       0.75220   0.70175   0.25000 
C          C       0.29488   0.35494   0.25000 
C          C       0.36745   0.35676   0.25000 
H          H       0.25017   0.30031   0.25000 
C          C       0.35508   0.06025   0.25000 
C          C       0.35692   0.98958   0.25000 
H          H       0.30040   0.05001   0.25000 
C          C       0.94017   0.29487   0.25000 
C          C       0.01130   0.36740   0.25000 
H          H       0.94994   0.25022   0.25000 
C          C       0.06230   0.70711   0.25000 
C          C       0.99120   0.63456   0.25000 
H          H       0.05251   0.75174   0.25000 
C          C       0.57295   0.00420   0.75000 
C          C       0.99791   0.56928   0.75000 
C          C       0.43283   0.42906   0.75000 
C          C       0.42927   0.99691   0.75000 
C          C       0.00464   0.43272   0.75000 
C          C       0.56956   0.57300   0.75000 
C          C       0.56763   0.06674   0.75000 
C          C       0.93568   0.50128   0.75000 
C          C       0.50087   0.43519   0.75000 
C          C       0.43515   0.93501   0.75000 
C          C       0.06687   0.50072   0.75000 
C          C       0.50152   0.56686   0.75000 
O          O       0.62079   0.13558   0.75000 
O          O       0.86742   0.48708   0.75000 
O          O       0.51506   0.38124   0.75000 
O          O       0.38143   0.86647   0.75000 
O          O       0.13516   0.51497   0.75000 
O          O       0.48733   0.62080   0.75000 
C          C       0.06636   0.56839   0.75000 
C          C       0.43376   0.49836   0.75000 
C          C       0.50355   0.93623   0.75000 
C          C       0.93619   0.43361   0.75000 
C          C       0.56863   0.50369   0.75000 
C          C       0.49882   0.06558   0.75000 
O          O       0.13775   0.62590   0.75000 
O          O       0.37624   0.51195   0.75000 
O          O       0.49084   0.86559   0.75000 
O          O       0.86479   0.37613   0.75000 
O          O       0.62613   0.49010   0.75000 
O          O       0.51174   0.13648   0.75000 
C          C       0.62884   0.25892   0.75000 
C          C       0.74320   0.37177   0.75000 
C          C       0.63042   0.37295   0.75000 
C          C       0.37371   0.74327   0.75000 
C          C       0.25934   0.63037   0.75000 
C          C       0.37211   0.62921   0.75000 
B          B       0.58837   0.17952   0.75000 
B          B       0.82267   0.41055   0.75000 
B          B       0.59167   0.41343   0.75000 
B          B       0.41413   0.82268   0.75000 
B          B       0.17987   0.59150   0.75000 
B          B       0.41075   0.58863   0.75000 
C          C       0.29680   0.59275   0.75000 
C          C       0.41003   0.70449   0.75000 
C          C       0.29839   0.70561   0.75000 
C          C       0.70574   0.40940   0.75000 
C          C       0.59255   0.29769   0.75000 
C          C       0.70415   0.29654   0.75000 
H          H       0.46490   0.73145   0.75000 
H          H       0.27142   0.73330   0.75000 
H          H       0.26885   0.53797   0.75000 
H          H       0.53773   0.27064   0.75000 
H          H       0.73102   0.26878   0.75000 
H          H       0.73368   0.46417   0.75000 
H          H       0.71483   0.10379   0.85669 
H          H       0.63826   0.96911   0.85625 
H          H       0.71166   0.61912   0.64391 
H          H       0.63213   0.67414   0.64373 
H          H       0.29074   0.38294   0.64392 
H          H       0.37030   0.32797   0.64370 
H          H       0.38311   0.09256   0.64394 
H          H       0.32809   0.95782   0.64370 
H          H       0.90800   0.29076   0.64391 
H          H       0.04297   0.37024   0.64370 
H          H       0.09449   0.71127   0.64392 
H          H       0.95951   0.63170   0.64370 
H          H       0.71483   0.10379   0.64331 
H          H       0.63826   0.96911   0.64375 
H          H       0.71166   0.61912   0.85609 
H          H       0.63213   0.67414   0.85626 
H          H       0.29074   0.38294   0.85608 
H          H       0.37030   0.32797   0.85630 
H          H       0.38311   0.09256   0.85607 
H          H       0.32809   0.95782   0.85630 
H          H       0.90800   0.29076   0.85609 
H          H       0.04297   0.37024   0.85630 
H          H       0.09449   0.71127   0.85608 
H          H       0.95951   0.63170   0.85629 
C          C       0.71133   0.07226   0.75000 
C          C       0.63983   0.00024   0.75000 
H          H       0.75677   0.06364   0.75000 
C          C       0.70751   0.64711   0.75000 
C          C       0.63493   0.64530   0.75000 
H          H       0.75220   0.70175   0.75000 
C          C       0.29488   0.35494   0.75000 
C          C       0.36745   0.35676   0.75000 
H          H       0.25017   0.30031   0.75000 
C          C       0.35508   0.06025   0.75000 
C          C       0.35692   0.98958   0.75000 
H          H       0.30040   0.05001   0.75000 
C          C       0.94017   0.29487   0.75000 
C          C       0.01130   0.36740   0.75000 
H          H       0.94994   0.25022   0.75000 
C          C       0.06230   0.70711   0.75000 
C          C       0.99120   0.63456   0.75000 
H          H       0.05251   0.75174   0.75000 
