data_crystal
 
_cell_length_a    37.54120
_cell_length_b    37.54120
_cell_length_c    3.37840
_cell_angle_alpha 90.00000
_cell_angle_beta  90.00000
_cell_angle_gamma 120.00000
 
_symmetry_space_group_name_Hall 'P 1'
_symmetry_space_group_name_H-M  'P 1'
 
loop_
_symmetry_equiv_pos_as_xyz
 'x,y,z' 
 
loop_
_atom_site_label
_atom_site_type_symbol
_atom_site_fract_x
_atom_site_fract_y
_atom_site_fract_z
_atom_site_charge
C          C       0.29457   0.62814   0.50000   0.0000000000
C          C       0.33388   0.59167   0.50000   0.0000000000
C          C       0.37097   0.59167   0.50000   0.0000000000
O          O       0.37899   0.55964   0.50000   0.0000000000
C          C       0.42428   0.51126   0.50000   0.0000000000
C          C       0.44513   0.48902   0.50000   0.0000000000
C          C       0.42390   0.44477   0.50000   0.0000000000
C          C       0.37186   0.66643   0.50000   0.0000000000
C          C       0.40833   0.74221   0.50000   0.0000000000
C          C       0.40833   0.77930   0.50000   0.0000000000
O          O       0.44036   0.81935   0.50000   0.0000000000
C          C       0.48874   0.91302   0.50000   0.0000000000
C          C       0.51098   0.95611   0.50000   0.0000000000
C          C       0.55523   0.97913   0.50000   0.0000000000
C          C       0.33357   0.70543   0.50000   0.0000000000
C          C       0.25779   0.66612   0.50000   0.0000000000
C          C       0.22070   0.62903   0.50000   0.0000000000
O          O       0.18065   0.62101   0.50000   0.0000000000
C          C       0.08698   0.57572   0.50000   0.0000000000
C          C       0.04389   0.55487   0.50000   0.0000000000
C          C       0.02087   0.57610   0.50000   0.0000000000
C          C       0.70543   0.37186   0.50000   0.0000000000
C          C       0.66612   0.40833   0.50000   0.0000000000
C          C       0.62903   0.40833   0.50000   0.0000000000
O          O       0.62101   0.44036   0.50000   0.0000000000
C          C       0.57572   0.48874   0.50000   0.0000000000
C          C       0.55487   0.51098   0.50000   0.0000000000
C          C       0.57610   0.55523   0.50000   0.0000000000
C          C       0.62814   0.33357   0.50000   0.0000000000
C          C       0.59167   0.25779   0.50000   0.0000000000
C          C       0.59167   0.22070   0.50000   0.0000000000
O          O       0.55964   0.18065   0.50000   0.0000000000
C          C       0.51126   0.08698   0.50000   0.0000000000
C          C       0.48902   0.04389   0.50000   0.0000000000
C          C       0.44477   0.02087   0.50000   0.0000000000
C          C       0.66643   0.29457   0.50000   0.0000000000
C          C       0.74221   0.33388   0.50000   0.0000000000
C          C       0.77930   0.37097   0.50000   0.0000000000
O          O       0.81935   0.37899   0.50000   0.0000000000
C          C       0.91302   0.42428   0.50000   0.0000000000
C          C       0.95611   0.44513   0.50000   0.0000000000
C          C       0.97913   0.42390   0.50000   0.0000000000
C          C       0.62814   0.29457   0.50000   0.0000000000
C          C       0.59167   0.33388   0.50000   0.0000000000
C          C       0.59167   0.37097   0.50000   0.0000000000
O          O       0.55964   0.37899   0.50000   0.0000000000
C          C       0.51126   0.42428   0.50000   0.0000000000
C          C       0.48902   0.44513   0.50000   0.0000000000
C          C       0.44477   0.42390   0.50000   0.0000000000
C          C       0.66643   0.37186   0.50000   0.0000000000
C          C       0.74221   0.40833   0.50000   0.0000000000
C          C       0.77930   0.40833   0.50000   0.0000000000
O          O       0.81935   0.44036   0.50000   0.0000000000
C          C       0.91302   0.48874   0.50000   0.0000000000
C          C       0.95611   0.51098   0.50000   0.0000000000
C          C       0.97913   0.55523   0.50000   0.0000000000
C          C       0.70543   0.33357   0.50000   0.0000000000
C          C       0.66612   0.25779   0.50000   0.0000000000
C          C       0.62903   0.22070   0.50000   0.0000000000
O          O       0.62101   0.18065   0.50000   0.0000000000
C          C       0.57572   0.08698   0.50000   0.0000000000
C          C       0.55487   0.04389   0.50000   0.0000000000
C          C       0.57610   0.02087   0.50000   0.0000000000
C          C       0.37186   0.70543   0.50000   0.0000000000
C          C       0.40833   0.66612   0.50000   0.0000000000
C          C       0.40833   0.62903   0.50000   0.0000000000
O          O       0.44036   0.62101   0.50000   0.0000000000
C          C       0.48874   0.57572   0.50000   0.0000000000
C          C       0.51098   0.55487   0.50000   0.0000000000
C          C       0.55523   0.57610   0.50000   0.0000000000
C          C       0.33357   0.62814   0.50000   0.0000000000
C          C       0.25779   0.59167   0.50000   0.0000000000
C          C       0.22070   0.59167   0.50000   0.0000000000
O          O       0.18065   0.55964   0.50000   0.0000000000
C          C       0.08698   0.51126   0.50000   0.0000000000
C          C       0.04389   0.48902   0.50000   0.0000000000
C          C       0.02087   0.44477   0.50000   0.0000000000
C          C       0.29457   0.66643   0.50000   0.0000000000
C          C       0.33388   0.74221   0.50000   0.0000000000
C          C       0.37097   0.77930   0.50000   0.0000000000
O          O       0.37899   0.81935   0.50000   0.0000000000
C          C       0.42428   0.91302   0.50000   0.0000000000
C          C       0.44513   0.95611   0.50000   0.0000000000
C          C       0.42390   0.97913   0.50000   0.0000000000
C          C       0.44552   0.55448   0.50000   0.0000000000
C          C       0.48905   0.51095   0.50000   0.0000000000
B          B       0.42181   0.57819   0.50000   0.0000000000
C          C       0.44552   0.89104   0.50000   0.0000000000
C          C       0.48905   0.97810   0.50000   0.0000000000
B          B       0.42181   0.84362   0.50000   0.0000000000
C          C       0.10896   0.55448   0.50000   0.0000000000
C          C       0.02190   0.51095   0.50000   0.0000000000
B          B       0.15638   0.57819   0.50000   0.0000000000
C          C       0.55448   0.44552   0.50000   0.0000000000
C          C       0.51095   0.48905   0.50000   0.0000000000
B          B       0.57819   0.42181   0.50000   0.0000000000
C          C       0.55448   0.10896   0.50000   0.0000000000
C          C       0.51095   0.02190   0.50000   0.0000000000
B          B       0.57819   0.15638   0.50000   0.0000000000
C          C       0.89104   0.44552   0.50000   0.0000000000
C          C       0.97810   0.48905   0.50000   0.0000000000
B          B       0.84362   0.42181   0.50000   0.0000000000
H          H       0.30364   0.56118   0.50000   0.0000000000
H          H       0.38922   0.49430   0.50000   0.0000000000
H          H       0.38885   0.42653   0.50000   0.0000000000
H          H       0.43882   0.74247   0.50000   0.0000000000
H          H       0.50570   0.89493   0.50000   0.0000000000
H          H       0.57347   0.96231   0.50000   0.0000000000
H          H       0.25753   0.69636   0.50000   0.0000000000
H          H       0.10507   0.61078   0.50000   0.0000000000
H          H       0.03769   0.61115   0.50000   0.0000000000
H          H       0.69636   0.43882   0.50000   0.0000000000
H          H       0.61078   0.50570   0.50000   0.0000000000
H          H       0.61115   0.57347   0.50000   0.0000000000
H          H       0.56118   0.25753   0.50000   0.0000000000
H          H       0.49430   0.10507   0.50000   0.0000000000
H          H       0.42653   0.03769   0.50000   0.0000000000
H          H       0.74247   0.30364   0.50000   0.0000000000
H          H       0.89493   0.38922   0.50000   0.0000000000
H          H       0.96231   0.38885   0.50000   0.0000000000
H          H       0.56118   0.30364   0.50000   0.0000000000
H          H       0.49430   0.38922   0.50000   0.0000000000
H          H       0.42653   0.38885   0.50000   0.0000000000
H          H       0.74247   0.43882   0.50000   0.0000000000
H          H       0.89493   0.50570   0.50000   0.0000000000
H          H       0.96231   0.57347   0.50000   0.0000000000
H          H       0.69636   0.25753   0.50000   0.0000000000
H          H       0.61078   0.10507   0.50000   0.0000000000
H          H       0.61115   0.03769   0.50000   0.0000000000
H          H       0.43882   0.69636   0.50000   0.0000000000
H          H       0.50570   0.61078   0.50000   0.0000000000
H          H       0.57347   0.61115   0.50000   0.0000000000
H          H       0.25753   0.56118   0.50000   0.0000000000
H          H       0.10507   0.49430   0.50000   0.0000000000
H          H       0.03769   0.42653   0.50000   0.0000000000
H          H       0.30364   0.74247   0.50000   0.0000000000
H          H       0.38922   0.89493   0.50000   0.0000000000
H          H       0.38885   0.96231   0.50000   0.0000000000
