data_crystal
 
_cell_length_a    22.16290
_cell_length_b    22.16290
_cell_length_c    3.42070
_cell_angle_alpha 90.00000
_cell_angle_beta  90.00000
_cell_angle_gamma 120.00000
 
_symmetry_space_group_name_Hall 'P 1'
_symmetry_space_group_name_H-M  'P 1'
 
loop_
_symmetry_equiv_pos_as_xyz
 'x,y,z' 
 
loop_
_atom_site_label
_atom_site_type_symbol
_atom_site_fract_x
_atom_site_fract_y
_atom_site_fract_z
_atom_site_charge
C          C       0.14521   0.62588   0.49999   0.0000000000
C          C       0.07328   0.59117   0.49999   0.0000000000
C          C       0.03489   0.62661   0.49999   0.0000000000
H          H       0.17408   0.68527   0.49999   0.0000000000
H          H       0.06339   0.68600   0.49999   0.0000000000
C          C       0.37412   0.51933   0.49999   0.0000000000
C          C       0.40883   0.48211   0.49999   0.0000000000
C          C       0.37339   0.40828   0.49999   0.0000000000
H          H       0.31473   0.48881   0.49999   0.0000000000
H          H       0.31400   0.37739   0.49999   0.0000000000
C          C       0.48067   0.85479   0.49999   0.0000000000
C          C       0.51789   0.92672   0.49999   0.0000000000
C          C       0.59172   0.96511   0.49999   0.0000000000
H          H       0.51119   0.82592   0.49999   0.0000000000
H          H       0.62261   0.93661   0.49999   0.0000000000
C          C       0.85479   0.37412   0.49999   0.0000000000
C          C       0.92672   0.40883   0.49999   0.0000000000
C          C       0.96511   0.37339   0.49999   0.0000000000
H          H       0.82592   0.31473   0.49999   0.0000000000
H          H       0.93661   0.31400   0.49999   0.0000000000
C          C       0.62588   0.48067   0.49999   0.0000000000
C          C       0.59117   0.51789   0.49999   0.0000000000
C          C       0.62661   0.59172   0.49999   0.0000000000
H          H       0.68527   0.51119   0.49999   0.0000000000
H          H       0.68600   0.62261   0.49999   0.0000000000
C          C       0.51933   0.14521   0.49999   0.0000000000
C          C       0.48211   0.07328   0.49999   0.0000000000
C          C       0.40828   0.03489   0.49999   0.0000000000
H          H       0.48881   0.17408   0.49999   0.0000000000
H          H       0.37739   0.06339   0.49999   0.0000000000
C          C       0.62588   0.14521   0.49999   0.0000000000
C          C       0.59117   0.07328   0.49999   0.0000000000
C          C       0.62661   0.03489   0.49999   0.0000000000
H          H       0.68527   0.17408   0.49999   0.0000000000
H          H       0.68600   0.06339   0.49999   0.0000000000
C          C       0.51933   0.37412   0.49999   0.0000000000
C          C       0.48211   0.40883   0.49999   0.0000000000
C          C       0.40828   0.37339   0.49999   0.0000000000
H          H       0.48881   0.31473   0.49999   0.0000000000
H          H       0.37739   0.31400   0.49999   0.0000000000
C          C       0.85479   0.48067   0.49999   0.0000000000
C          C       0.92672   0.51789   0.49999   0.0000000000
C          C       0.96511   0.59172   0.49999   0.0000000000
H          H       0.82592   0.51119   0.49999   0.0000000000
H          H       0.93661   0.62261   0.49999   0.0000000000
C          C       0.37412   0.85479   0.49999   0.0000000000
C          C       0.40883   0.92672   0.49999   0.0000000000
C          C       0.37339   0.96511   0.49999   0.0000000000
H          H       0.31473   0.82592   0.49999   0.0000000000
H          H       0.31400   0.93661   0.49999   0.0000000000
C          C       0.48067   0.62588   0.49999   0.0000000000
C          C       0.51789   0.59117   0.49999   0.0000000000
C          C       0.59172   0.62661   0.49999   0.0000000000
H          H       0.51119   0.68527   0.49999   0.0000000000
H          H       0.62261   0.68600   0.49999   0.0000000000
C          C       0.14521   0.51933   0.49999   0.0000000000
C          C       0.07328   0.48211   0.49999   0.0000000000
C          C       0.03489   0.40828   0.49999   0.0000000000
H          H       0.17408   0.48881   0.49999   0.0000000000
H          H       0.06339   0.37739   0.49999   0.0000000000
C          C       0.18206   0.59103   0.49999   0.0000000000
C          C       0.03650   0.51825   0.49999   0.0000000000
B          B       0.26177   0.63089   0.49999   0.0000000000
C          C       0.40897   0.59103   0.49999   0.0000000000
C          C       0.48175   0.51825   0.49999   0.0000000000
B          B       0.36912   0.63089   0.49999   0.0000000000
C          C       0.40897   0.81794   0.49999   0.0000000000
C          C       0.48175   0.96350   0.49999   0.0000000000
B          B       0.36912   0.73823   0.49999   0.0000000000
C          C       0.81794   0.40897   0.49999   0.0000000000
C          C       0.96350   0.48175   0.49999   0.0000000000
B          B       0.73823   0.36912   0.49999   0.0000000000
C          C       0.59103   0.40897   0.49999   0.0000000000
C          C       0.51825   0.48175   0.49999   0.0000000000
B          B       0.63089   0.36912   0.49999   0.0000000000
C          C       0.59103   0.18206   0.49999   0.0000000000
C          C       0.51825   0.03650   0.49999   0.0000000000
B          B       0.63089   0.26177   0.49999   0.0000000000
O          O       0.29791   0.59581   0.49999   0.0000000000
O          O       0.40419   0.70210   0.49999   0.0000000000
O          O       0.29791   0.70210   0.49999   0.0000000000
O          O       0.70210   0.40419   0.49999   0.0000000000
O          O       0.59581   0.29791   0.49999   0.0000000000
O          O       0.70210   0.29791   0.49999   0.0000000000
