data_2D-NiPc-BTDA-COF-opt
_audit_creation_date              0000-00-00
_audit_creation_method            'LanYouShi'
_symmetry_space_group_name_H-M    'P1'
_cell_length_a                    46.4916000
_cell_length_b                    46.4916000
_cell_length_c                    3.4049001
_cell_angle_alpha                 90.0000000
_cell_angle_beta                  90.0000000
_cell_angle_gamma                 90.0000000
loop_
_atom_site_label
_atom_site_type_symbol
_atom_site_fract_x
_atom_site_fract_y
_atom_site_fract_z
_atom_site_U_iso_or_equiv
_atom_site_adp_type
_atom_site_occupancy
        N1          N  0.5047103  0.5396003  0.5000044    0.00000       Uiso       1.00
        N2          N  0.5580196  0.5444674  0.5000042    0.00000       Uiso       1.00
        C1          C  0.5627128  0.5158848  0.5000041    0.00000       Uiso       1.00
        C2          C  0.5897173  0.5028687  0.5000045    0.00000       Uiso       1.00
        C3          C  0.5857130  0.4733403  0.5000045    0.00000       Uiso       1.00
        C4          C  0.5561484  0.4683437  0.5000041    0.00000       Uiso       1.00
        C5          C  0.6092904  0.4540963  0.5000055    0.00000       Uiso       1.00
        C6          C  0.6372089  0.4662465  0.5000069    0.00000       Uiso       1.00
        C7          C  0.6409971  0.4958387  0.5000072    0.00000       Uiso       1.00
        C8          C  0.6174504  0.5149943  0.5000057    0.00000       Uiso       1.00
        O1          O  0.6698360  0.5036582  0.5000087    0.00000       Uiso       1.00
        B1          B  0.6841557  0.4753700  0.5000092    0.00000       Uiso       1.00
        O2          O  0.6634007  0.4513021  0.5000079    0.00000       Uiso       1.00
        N3          N  0.9436621  0.5451939  0.4999786    0.00000       Uiso       1.00
        C9          C  0.9378409  0.5149050  0.4999796    0.00000       Uiso       1.00
        N4          N  0.9586049  0.4942222  0.4999929    0.00000       Uiso       1.00
       C10          C  0.9430301  0.4688056  0.4999979    0.00000       Uiso       1.00
       C11          C  0.9136118  0.4731888  0.4999888    0.00000       Uiso       1.00
       C12          C  0.9101520  0.5026156  0.4999758    0.00000       Uiso       1.00
       C13          C  0.8824464  0.5148621  0.4999637    0.00000       Uiso       1.00
       C14          C  0.8587011  0.4957245  0.4999679    0.00000       Uiso       1.00
       C15          C  0.8622376  0.4660191  0.4999818    0.00000       Uiso       1.00
       C16          C  0.8899330  0.4534499  0.4999922    0.00000       Uiso       1.00
       C17          C  0.9828504  0.4360302  0.5000044    0.00000       Uiso       1.00
       C18          C  0.9824604  0.3799101  0.5000044    0.00000       Uiso       1.00
       C19          C  0.0016800  0.3570401  0.5000044    0.00000       Uiso       1.00
        N5          N  0.9546903  0.4405902  0.5000044    0.00000       Uiso       1.00
        O3          O  0.8298465  0.5036418  0.4999644    0.00000       Uiso       1.00
        B2          B  0.8153465  0.4753868  0.4999789    0.00000       Uiso       1.00
       C20          C  0.7807907  0.4727646  0.4999907    0.00000       Uiso       1.00
       C21          C  0.7646313  0.4468541  0.4999965    0.00000       Uiso       1.00
       C22          C  0.7346083  0.4985771  0.5000035    0.00000       Uiso       1.00
       C23          C  0.7648810  0.4985673  0.4999957    0.00000       Uiso       1.00
        O4          O  0.8359570  0.4512531  0.4999888    0.00000       Uiso       1.00
        H1          H  0.6061687  0.4310391  0.5000054    0.00000       Uiso       1.00
        H2          H  0.6206518  0.5380432  0.5000058    0.00000       Uiso       1.00
        H3          H  0.8919604  0.4295302  0.5000044    0.00000       Uiso       1.00
        H4          H  0.8793755  0.5379253  0.4999518    0.00000       Uiso       1.00
        H5          H  0.7237014  0.5191647  0.5000073    0.00000       Uiso       1.00
        H6          H  0.7758067  0.5191456  0.4999939    0.00000       Uiso       1.00
        N6          N  0.7236098  0.4201938  0.5000079    0.00000       Uiso       1.00
        N7          N  0.7756554  0.4200985  0.4999960    0.00000       Uiso       1.00
        S1          S  0.7495604  0.3943602  0.5000044    0.00000       Uiso       1.00
       C24          C  0.5557503  0.0295800  0.5000044    0.00000       Uiso       1.00
       C25          C  0.5867903  0.0243700  0.5000044    0.00000       Uiso       1.00
       C26          C  0.6369403  0.0305600  0.5000044    0.00000       Uiso       1.00
       C27          C  0.6100903  0.0436400  0.5000044    0.00000       Uiso       1.00
        H7          H  0.6071903  0.0668200  0.5000044    0.00000       Uiso       1.00
        N8          N  0.5409902  0.0033200  0.5000044    0.00000       Uiso       1.00
        N9          N  0.9546804  0.0557800  0.5000044    0.00000       Uiso       1.00
       C28          C  0.9433804  0.0295800  0.5000044    0.00000       Uiso       1.00
       N10          N  0.9581504  0.0033300  0.5000044    0.00000       Uiso       1.00
       C29          C  0.5905203  0.9941005  0.5000044    0.00000       Uiso       1.00
        O5          O  0.6704303  0.9941704  0.5000044    0.00000       Uiso       1.00
        B3          B  0.6850103  0.0213500  0.5000044    0.00000       Uiso       1.00
        O6          O  0.6642803  0.0438400  0.5000044    0.00000       Uiso       1.00
       C30          C  0.9123504  0.0243600  0.5000044    0.00000       Uiso       1.00
       C31          C  0.9086204  0.9940904  0.5000044    0.00000       Uiso       1.00
       C32          C  0.9374504  0.9814804  0.5000044    0.00000       Uiso       1.00
       C33          C  0.8813404  0.9810404  0.5000044    0.00000       Uiso       1.00
       C34          C  0.8584504  0.0002300  0.5000044    0.00000       Uiso       1.00
       C35          C  0.8622004  0.0305500  0.5000044    0.00000       Uiso       1.00
       C36          C  0.8890404  0.0436200  0.5000044    0.00000       Uiso       1.00
        O7          O  0.8348404  0.0438200  0.5000044    0.00000       Uiso       1.00
        B4          B  0.8141304  0.0213200  0.5000044    0.00000       Uiso       1.00
       C37          C  0.7810504  0.0233200  0.5000044    0.00000       Uiso       1.00
       C38          C  0.7650003  0.9981704  0.5000044    0.00000       Uiso       1.00
       C39          C  0.7341203  0.9981704  0.5000044    0.00000       Uiso       1.00
       C40          C  0.7180803  0.0233200  0.5000044    0.00000       Uiso       1.00
       C41          C  0.7336804  0.0503000  0.5000044    0.00000       Uiso       1.00
        O8          O  0.8287004  0.9941504  0.5000044    0.00000       Uiso       1.00
        H8          H  0.6205302  0.9578504  0.5000044    0.00000       Uiso       1.00
        H9          H  0.8786104  0.9578304  0.5000044    0.00000       Uiso       1.00
       H10          H  0.8919303  0.0668100  0.5000044    0.00000       Uiso       1.00
       H11          H  0.7228203  0.9776204  0.5000044    0.00000       Uiso       1.00
       H12          H  0.7763203  0.9776204  0.5000044    0.00000       Uiso       1.00
       N11          N  0.7211404  0.0761900  0.5000044    0.00000       Uiso       1.00
       N12          N  0.7779804  0.0761900  0.5000044    0.00000       Uiso       1.00
        S2          S  0.7495604  0.1019600  0.5000044    0.00000       Uiso       1.00
       C42          C  0.7186766  0.4727829  0.5000057    0.00000       Uiso       1.00
       C43          C  0.7347615  0.4468865  0.5000034    0.00000       Uiso       1.00
       C44          C  0.7654503  0.0503000  0.5000044    0.00000       Uiso       1.00
       N13          N  0.4952902  0.4604002  0.5000044    0.00000       Uiso       1.00
       N14          N  0.4428502  0.4569502  0.5000044    0.00000       Uiso       1.00
       C45          C  0.4382802  0.4851202  0.5000044    0.00000       Uiso       1.00
       C46          C  0.4094502  0.4977302  0.5000044    0.00000       Uiso       1.00
       C47          C  0.4132002  0.5280102  0.5000044    0.00000       Uiso       1.00
       C48          C  0.4442402  0.5332102  0.5000044    0.00000       Uiso       1.00
       C49          C  0.3899101  0.5472803  0.5000044    0.00000       Uiso       1.00
       C50          C  0.3630601  0.5342202  0.5000044    0.00000       Uiso       1.00
       C51          C  0.3593002  0.5039002  0.5000044    0.00000       Uiso       1.00
       C52          C  0.3821801  0.4847002  0.5000044    0.00000       Uiso       1.00
        O9          O  0.3295601  0.4978402  0.5000044    0.00000       Uiso       1.00
        B5          B  0.3149801  0.5250202  0.5000044    0.00000       Uiso       1.00
       O10          O  0.3357302  0.5475003  0.5000044    0.00000       Uiso       1.00
       N15          N  0.0580200  0.4569502  0.5000044    0.00000       Uiso       1.00
       C53          C  0.0625900  0.4851202  0.5000044    0.00000       Uiso       1.00
       N16          N  0.0418600  0.5069702  0.5000044    0.00000       Uiso       1.00
       C54          C  0.0566300  0.5332102  0.5000044    0.00000       Uiso       1.00
       C55          C  0.0876601  0.5280102  0.5000044    0.00000       Uiso       1.00
       C56          C  0.0914100  0.4977402  0.5000044    0.00000       Uiso       1.00
       C57          C  0.1187001  0.4847102  0.5000044    0.00000       Uiso       1.00
       C58          C  0.1415700  0.5039102  0.5000044    0.00000       Uiso       1.00
       C59          C  0.1378101  0.5342302  0.5000044    0.00000       Uiso       1.00
       C60          C  0.1109601  0.5472903  0.5000044    0.00000       Uiso       1.00
       C61          C  0.0171500  0.5639703  0.5000044    0.00000       Uiso       1.00
       C62          C  0.0175400  0.6200902  0.5000044    0.00000       Uiso       1.00
       C63          C  0.9981261  0.6423715  0.4999992    0.00000       Uiso       1.00
       N17          N  0.0453100  0.5594103  0.5000044    0.00000       Uiso       1.00
       O11          O  0.1713101  0.4978602  0.5000044    0.00000       Uiso       1.00
        B6          B  0.1858801  0.5250302  0.5000044    0.00000       Uiso       1.00
       C64          C  0.2189501  0.5270102  0.5000044    0.00000       Uiso       1.00
       C65          C  0.2345501  0.5539802  0.5000044    0.00000       Uiso       1.00
       C66          C  0.2658701  0.5018402  0.5000044    0.00000       Uiso       1.00
       C67          C  0.2349901  0.5018502  0.5000044    0.00000       Uiso       1.00
       O12          O  0.1651400  0.5475202  0.5000044    0.00000       Uiso       1.00
       H13          H  0.3928102  0.5704602  0.5000044    0.00000       Uiso       1.00
       H14          H  0.3794201  0.4615002  0.5000044    0.00000       Uiso       1.00
       H15          H  0.1080400  0.5704703  0.5000044    0.00000       Uiso       1.00
       H16          H  0.1214601  0.4615102  0.5000044    0.00000       Uiso       1.00
       H17          H  0.2771801  0.4813102  0.5000044    0.00000       Uiso       1.00
       H18          H  0.2236701  0.4813202  0.5000044    0.00000       Uiso       1.00
       N18          N  0.2788601  0.5798702  0.5000044    0.00000       Uiso       1.00
       N19          N  0.2220201  0.5798702  0.5000044    0.00000       Uiso       1.00
        S3          S  0.2504401  0.6056402  0.5000044    0.00000       Uiso       1.00
       C68          C  0.4442502  0.9704204  0.5000044    0.00000       Uiso       1.00
       C69          C  0.4132102  0.9756304  0.5000044    0.00000       Uiso       1.00
       C70          C  0.3630601  0.9694404  0.5000044    0.00000       Uiso       1.00
       C71          C  0.3899101  0.9563605  0.5000044    0.00000       Uiso       1.00
       H19          H  0.3928102  0.9331803  0.5000044    0.00000       Uiso       1.00
       N20          N  0.4590102  0.9966804  0.5000044    0.00000       Uiso       1.00
       N21          N  0.0453200  0.9442204  0.5000044    0.00000       Uiso       1.00
       C72          C  0.0566200  0.9704204  0.5000044    0.00000       Uiso       1.00
       N22          N  0.0418500  0.9966704  0.5000044    0.00000       Uiso       1.00
       C73          C  0.4094802  0.0059000  0.5000044    0.00000       Uiso       1.00
       O13          O  0.3295701  0.0058300  0.5000044    0.00000       Uiso       1.00
        B7          B  0.3149901  0.9786504  0.5000044    0.00000       Uiso       1.00
       O14          O  0.3357202  0.9561604  0.5000044    0.00000       Uiso       1.00
       C74          C  0.0876500  0.9756404  0.5000044    0.00000       Uiso       1.00
       C75          C  0.0913800  0.0059100  0.5000044    0.00000       Uiso       1.00
       C76          C  0.0625500  0.0185200  0.5000044    0.00000       Uiso       1.00
       C77          C  0.1186600  0.0189600  0.5000044    0.00000       Uiso       1.00
       C78          C  0.1415501  0.9997704  0.5000044    0.00000       Uiso       1.00
       C79          C  0.1378000  0.9694504  0.5000044    0.00000       Uiso       1.00
       C80          C  0.1109601  0.9563804  0.5000044    0.00000       Uiso       1.00
       O15          O  0.1651601  0.9561804  0.5000044    0.00000       Uiso       1.00
        B8          B  0.1858701  0.9786804  0.5000044    0.00000       Uiso       1.00
       C81          C  0.2189501  0.9766805  0.5000044    0.00000       Uiso       1.00
       C82          C  0.2350001  0.0018300  0.5000044    0.00000       Uiso       1.00
       C83          C  0.2658801  0.0018300  0.5000044    0.00000       Uiso       1.00
       C84          C  0.2819201  0.9766805  0.5000044    0.00000       Uiso       1.00
       C85          C  0.2663201  0.9497004  0.5000044    0.00000       Uiso       1.00
       O16          O  0.1713001  0.0058500  0.5000044    0.00000       Uiso       1.00
       H20          H  0.3794701  0.0421500  0.5000044    0.00000       Uiso       1.00
       H21          H  0.1213900  0.0421700  0.5000044    0.00000       Uiso       1.00
       H22          H  0.1080701  0.9331903  0.5000044    0.00000       Uiso       1.00
       H23          H  0.2771801  0.0223800  0.5000044    0.00000       Uiso       1.00
       H24          H  0.2236801  0.0223800  0.5000044    0.00000       Uiso       1.00
       N23          N  0.2788601  0.9238104  0.5000044    0.00000       Uiso       1.00
       N24          N  0.2220201  0.9238104  0.5000044    0.00000       Uiso       1.00
        S4          S  0.2504401  0.8980404  0.5000044    0.00000       Uiso       1.00
       C86          C  0.2819201  0.5270002  0.5000044    0.00000       Uiso       1.00
       C87          C  0.2663301  0.5539802  0.5000044    0.00000       Uiso       1.00
       C88          C  0.2345501  0.9497004  0.5000044    0.00000       Uiso       1.00
       Ni1         Ni -0.0001346  0.5002515  0.4999997    0.00000       Uiso       1.00
       Ni2         Ni  0.0004100  0.0018100  0.5000044    0.00000       Uiso       1.00
       N25          N  0.4604002  0.5047103  0.5000044    0.00000       Uiso       1.00
       N26          N  0.4569502  0.5571502  0.5000044    0.00000       Uiso       1.00
       C89          C  0.4851202  0.5617203  0.5000044    0.00000       Uiso       1.00
       C90          C  0.4977302  0.5905502  0.5000044    0.00000       Uiso       1.00
       C91          C  0.5268003  0.5861805  0.5000043    0.00000       Uiso       1.00
       C92          C  0.5314417  0.5562135  0.5000043    0.00000       Uiso       1.00
       C93          C  0.5458799  0.6098427  0.5000043    0.00000       Uiso       1.00
       C94          C  0.5333643  0.6376737  0.5000043    0.00000       Uiso       1.00
       C95          C  0.5036473  0.6412997  0.5000044    0.00000       Uiso       1.00
       C96          C  0.4847002  0.6178203  0.5000044    0.00000       Uiso       1.00
       O17          O  0.4954833  0.6699133  0.5000044    0.00000       Uiso       1.00
        B9          B  0.5235996  0.6842482  0.5000044    0.00000       Uiso       1.00
       O18          O  0.5479828  0.6639246  0.5000044    0.00000       Uiso       1.00
       N27          N  0.4569502  0.9419804  0.5000044    0.00000       Uiso       1.00
       C97          C  0.4851202  0.9374104  0.5000044    0.00000       Uiso       1.00
       N28          N  0.5069702  0.9581404  0.5000044    0.00000       Uiso       1.00
       C98          C  0.5332102  0.9433704  0.5000044    0.00000       Uiso       1.00
       C99          C  0.5280102  0.9123404  0.5000044    0.00000       Uiso       1.00
      C100          C  0.4977402  0.9085904  0.5000044    0.00000       Uiso       1.00
      C101          C  0.4847102  0.8813004  0.5000044    0.00000       Uiso       1.00
      C102          C  0.5039102  0.8584304  0.5000044    0.00000       Uiso       1.00
      C103          C  0.5342302  0.8621904  0.5000044    0.00000       Uiso       1.00
      C104          C  0.5472903  0.8890404  0.5000044    0.00000       Uiso       1.00
      C105          C  0.5639703  0.9828504  0.5000044    0.00000       Uiso       1.00
      C106          C  0.6200902  0.9824604  0.5000044    0.00000       Uiso       1.00
      C107          C  0.6429603  0.0016800  0.5000044    0.00000       Uiso       1.00
       N29          N  0.5594103  0.9546903  0.5000044    0.00000       Uiso       1.00
       O19          O  0.4978602  0.8286904  0.5000044    0.00000       Uiso       1.00
       B10          B  0.5250302  0.8141204  0.5000044    0.00000       Uiso       1.00
      C108          C  0.5267685  0.7799789  0.5000044    0.00000       Uiso       1.00
      C109          C  0.5522544  0.7637038  0.5000044    0.00000       Uiso       1.00
      C110          C  0.5001937  0.7343951  0.5000044    0.00000       Uiso       1.00
      C111          C  0.5006340  0.7646043  0.5000044    0.00000       Uiso       1.00
       O20          O  0.5475202  0.8348604  0.5000044    0.00000       Uiso       1.00
       H25          H  0.5689610  0.6069177  0.5000042    0.00000       Uiso       1.00
       H26          H  0.4615002  0.6205803  0.5000044    0.00000       Uiso       1.00
       H27          H  0.5704703  0.8919604  0.5000044    0.00000       Uiso       1.00
       H28          H  0.4615102  0.8785403  0.5000044    0.00000       Uiso       1.00
       H29          H  0.4795104  0.7236691  0.5000044    0.00000       Uiso       1.00
       H30          H  0.4802305  0.7758569  0.5000044    0.00000       Uiso       1.00
       N30          N  0.5782346  0.7224380  0.5000044    0.00000       Uiso       1.00
       N31          N  0.5789504  0.7745572  0.5000044    0.00000       Uiso       1.00
        S5          S  0.6041002  0.7481488  0.5000044    0.00000       Uiso       1.00
      C112          C  0.9692665  0.5564850  0.4999869    0.00000       Uiso       1.00
      C113          C  0.9758245  0.5871271  0.4999918    0.00000       Uiso       1.00
      C114          C  0.9687042  0.6382666  0.4999887    0.00000       Uiso       1.00
      C115          C  0.9567220  0.6105911  0.4999825    0.00000       Uiso       1.00
       H31          H  0.9336644  0.6074653  0.4999704    0.00000       Uiso       1.00
       N32          N  0.9955547  0.5409413  0.4999963    0.00000       Uiso       1.00
       N33          N  0.9442204  0.9546804  0.5000044    0.00000       Uiso       1.00
      C116          C  0.9704204  0.9433804  0.5000044    0.00000       Uiso       1.00
       N34          N  0.9966704  0.9581504  0.5000044    0.00000       Uiso       1.00
      C117          C  0.0059000  0.5905203  0.5000044    0.00000       Uiso       1.00
       O21          O  0.0058300  0.6704303  0.5000044    0.00000       Uiso       1.00
       B11          B  0.9779184  0.6844751  0.4999965    0.00000       Uiso       1.00
       O22          O  0.9536573  0.6641760  0.4999855    0.00000       Uiso       1.00
      C118          C  0.9761466  0.9133366  0.5000044    0.00000       Uiso       1.00
      C119          C  0.0059100  0.9086204  0.5000044    0.00000       Uiso       1.00
      C120          C  0.0185200  0.9374504  0.5000044    0.00000       Uiso       1.00
      C121          C  0.0189600  0.8813404  0.5000044    0.00000       Uiso       1.00
      C122          C  0.9990830  0.8578873  0.5000044    0.00000       Uiso       1.00
      C123          C  0.9693130  0.8620800  0.5000042    0.00000       Uiso       1.00
      C124          C  0.9571028  0.8898633  0.5000044    0.00000       Uiso       1.00
       O23          O  0.9539593  0.8362294  0.5000041    0.00000       Uiso       1.00
       B12          B  0.9777415  0.8154302  0.5000039    0.00000       Uiso       1.00
      C125          C  0.9756230  0.7812299  0.5000062    0.00000       Uiso       1.00
      C126          C  0.0018300  0.7650003  0.5000044    0.00000       Uiso       1.00
      C127          C  0.0018300  0.7341203  0.5000044    0.00000       Uiso       1.00
      C128          C  0.9758685  0.7182261  0.5000004    0.00000       Uiso       1.00
      C129          C  0.9495381  0.7329496  0.4999994    0.00000       Uiso       1.00
       O24          O  0.0058500  0.8287004  0.5000044    0.00000       Uiso       1.00
       H32          H  0.0421500  0.6205302  0.5000044    0.00000       Uiso       1.00
       H33          H  0.0421700  0.8786104  0.5000044    0.00000       Uiso       1.00
       H34          H  0.9340330  0.8929049  0.5000044    0.00000       Uiso       1.00
       H35          H  0.0223800  0.7228203  0.5000044    0.00000       Uiso       1.00
       H36          H  0.0223800  0.7763203  0.5000044    0.00000       Uiso       1.00
       N35          N  0.9246242  0.7207726  0.4999973    0.00000       Uiso       1.00
       N36          N  0.9229057  0.7747946  0.5000015    0.00000       Uiso       1.00
        S6          S  0.8964889  0.7469271  0.4999979    0.00000       Uiso       1.00
      C130          C  0.5258756  0.7183697  0.5000044    0.00000       Uiso       1.00
      C131          C  0.5518296  0.7339935  0.5000044    0.00000       Uiso       1.00
      C132          C  0.9484365  0.7640790  0.5000018    0.00000       Uiso       1.00
       N37          N  0.5403653  0.4947725  0.5000038    0.00000       Uiso       1.00
       N38          N  0.5436919  0.4422121  0.5000043    0.00000       Uiso       1.00
      C133          C  0.5148802  0.4382802  0.5000044    0.00000       Uiso       1.00
      C134          C  0.5022702  0.4094502  0.5000044    0.00000       Uiso       1.00
      C135          C  0.4719902  0.4132002  0.5000044    0.00000       Uiso       1.00
      C136          C  0.4667902  0.4442402  0.5000044    0.00000       Uiso       1.00
      C137          C  0.4527202  0.3899101  0.5000044    0.00000       Uiso       1.00
      C138          C  0.4657802  0.3630601  0.5000044    0.00000       Uiso       1.00
      C139          C  0.4961002  0.3593002  0.5000044    0.00000       Uiso       1.00
      C140          C  0.5153002  0.3821801  0.5000044    0.00000       Uiso       1.00
       O25          O  0.5021603  0.3295601  0.5000044    0.00000       Uiso       1.00
       B13          B  0.4749802  0.3149801  0.5000044    0.00000       Uiso       1.00
       O26          O  0.4525002  0.3357302  0.5000044    0.00000       Uiso       1.00
       N39          N  0.5430502  0.0580200  0.5000044    0.00000       Uiso       1.00
      C141          C  0.5148802  0.0625900  0.5000044    0.00000       Uiso       1.00
       N40          N  0.4930302  0.0418600  0.5000044    0.00000       Uiso       1.00
      C142          C  0.4667902  0.0566300  0.5000044    0.00000       Uiso       1.00
      C143          C  0.4719902  0.0876601  0.5000044    0.00000       Uiso       1.00
      C144          C  0.5022602  0.0914100  0.5000044    0.00000       Uiso       1.00
      C145          C  0.5152902  0.1187001  0.5000044    0.00000       Uiso       1.00
      C146          C  0.4960902  0.1415700  0.5000044    0.00000       Uiso       1.00
      C147          C  0.4657702  0.1378101  0.5000044    0.00000       Uiso       1.00
      C148          C  0.4527102  0.1109601  0.5000044    0.00000       Uiso       1.00
      C149          C  0.4360302  0.0171500  0.5000044    0.00000       Uiso       1.00
      C150          C  0.3799101  0.0175400  0.5000044    0.00000       Uiso       1.00
      C151          C  0.3570401  0.9983204  0.5000044    0.00000       Uiso       1.00
       N41          N  0.4405902  0.0453100  0.5000044    0.00000       Uiso       1.00
       O27          O  0.5021402  0.1713101  0.5000044    0.00000       Uiso       1.00
       B14          B  0.4749702  0.1858801  0.5000044    0.00000       Uiso       1.00
      C152          C  0.4729902  0.2189501  0.5000044    0.00000       Uiso       1.00
      C153          C  0.4460202  0.2345501  0.5000044    0.00000       Uiso       1.00
      C154          C  0.4981602  0.2658701  0.5000044    0.00000       Uiso       1.00
      C155          C  0.4981502  0.2349901  0.5000044    0.00000       Uiso       1.00
       O28          O  0.4524802  0.1651400  0.5000044    0.00000       Uiso       1.00
       H37          H  0.4295402  0.3928102  0.5000044    0.00000       Uiso       1.00
       H38          H  0.5385002  0.3794201  0.5000044    0.00000       Uiso       1.00
       H39          H  0.4295302  0.1080400  0.5000044    0.00000       Uiso       1.00
       H40          H  0.5384902  0.1214601  0.5000044    0.00000       Uiso       1.00
       H41          H  0.5186902  0.2771801  0.5000044    0.00000       Uiso       1.00
       H42          H  0.5186802  0.2236701  0.5000044    0.00000       Uiso       1.00
       N42          N  0.4201302  0.2788601  0.5000044    0.00000       Uiso       1.00
       N43          N  0.4201302  0.2220201  0.5000044    0.00000       Uiso       1.00
        S7          S  0.3943602  0.2504401  0.5000044    0.00000       Uiso       1.00
      C156          C  0.0295800  0.4442502  0.5000044    0.00000       Uiso       1.00
      C157          C  0.0243700  0.4132102  0.5000044    0.00000       Uiso       1.00
      C158          C  0.0305600  0.3630601  0.5000044    0.00000       Uiso       1.00
      C159          C  0.0436400  0.3899101  0.5000044    0.00000       Uiso       1.00
       H43          H  0.0668200  0.3928102  0.5000044    0.00000       Uiso       1.00
       N44          N  0.0033200  0.4590102  0.5000044    0.00000       Uiso       1.00
       N45          N  0.0557800  0.0453200  0.5000044    0.00000       Uiso       1.00
      C160          C  0.0295800  0.0566200  0.5000044    0.00000       Uiso       1.00
       N46          N  0.0033300  0.0418500  0.5000044    0.00000       Uiso       1.00
      C161          C  0.9941005  0.4094802  0.5000044    0.00000       Uiso       1.00
       O29          O  0.9941704  0.3295701  0.5000044    0.00000       Uiso       1.00
       B15          B  0.0213500  0.3149901  0.5000044    0.00000       Uiso       1.00
       O30          O  0.0438400  0.3357202  0.5000044    0.00000       Uiso       1.00
      C162          C  0.0243600  0.0876500  0.5000044    0.00000       Uiso       1.00
      C163          C  0.9940904  0.0913800  0.5000044    0.00000       Uiso       1.00
      C164          C  0.9814804  0.0625500  0.5000044    0.00000       Uiso       1.00
      C165          C  0.9810404  0.1186600  0.5000044    0.00000       Uiso       1.00
      C166          C  0.0002300  0.1415501  0.5000044    0.00000       Uiso       1.00
      C167          C  0.0305500  0.1378000  0.5000044    0.00000       Uiso       1.00
      C168          C  0.0436200  0.1109601  0.5000044    0.00000       Uiso       1.00
       O31          O  0.0438200  0.1651601  0.5000044    0.00000       Uiso       1.00
       B16          B  0.0213200  0.1858701  0.5000044    0.00000       Uiso       1.00
      C169          C  0.0233200  0.2189501  0.5000044    0.00000       Uiso       1.00
      C170          C  0.9981704  0.2350001  0.5000044    0.00000       Uiso       1.00
      C171          C  0.9981704  0.2658801  0.5000044    0.00000       Uiso       1.00
      C172          C  0.0233200  0.2819201  0.5000044    0.00000       Uiso       1.00
      C173          C  0.0503000  0.2663201  0.5000044    0.00000       Uiso       1.00
       O32          O  0.9941504  0.1713001  0.5000044    0.00000       Uiso       1.00
       H44          H  0.9578504  0.3794701  0.5000044    0.00000       Uiso       1.00
       H45          H  0.9578304  0.1213900  0.5000044    0.00000       Uiso       1.00
       H46          H  0.0668100  0.1080701  0.5000044    0.00000       Uiso       1.00
       H47          H  0.9776204  0.2771801  0.5000044    0.00000       Uiso       1.00
       H48          H  0.9776204  0.2236801  0.5000044    0.00000       Uiso       1.00
       N47          N  0.0761900  0.2788601  0.5000044    0.00000       Uiso       1.00
       N48          N  0.0761900  0.2220201  0.5000044    0.00000       Uiso       1.00
        S8          S  0.1019600  0.2504401  0.5000044    0.00000       Uiso       1.00
      C174          C  0.4730002  0.2819201  0.5000044    0.00000       Uiso       1.00
      C175          C  0.4460202  0.2663301  0.5000044    0.00000       Uiso       1.00
      C176          C  0.0503000  0.2345501  0.5000044    0.00000       Uiso       1.00
       Ni3         Ni  0.4981702  0.0004200  0.5000044    0.00000       Uiso       1.00
       Ni4         Ni  0.5002443  0.4998366  0.5000042    0.00000       Uiso       1.00
