data_4PE-2P
_audit_creation_date              0000-00-00
_audit_creation_method            'LanYouShi'
_symmetry_space_group_name_H-M    'P1'
_cell_length_a                    45.8218002
_cell_length_b                    45.8218002
_cell_length_c                    4.6300001
_cell_angle_alpha                 90.0000000
_cell_angle_beta                  90.0000000
_cell_angle_gamma                 120.0000000
loop_
_atom_site_label
_atom_site_type_symbol
_atom_site_fract_x
_atom_site_fract_y
_atom_site_fract_z
_atom_site_U_iso_or_equiv
_atom_site_adp_type
_atom_site_occupancy
        C1          C  0.4852097  0.4850497  0.3371500    0.00000       Uiso       1.00
        C2          C  0.4533497  0.4844497  0.3550000    0.00000       Uiso       1.00
        C3          C  0.4276897  0.4646697  0.1631600    0.00000       Uiso       1.00
        C4          C  0.3991497  0.4670597  0.1561500    0.00000       Uiso       1.00
        C5          C  0.3960598  0.4893297  0.3410300    0.00000       Uiso       1.00
        C6          C  0.4210897  0.5081697  0.5430000    0.00000       Uiso       1.00
        C7          C  0.4492397  0.5051396  0.5508400    0.00000       Uiso       1.00
        H1          H  0.4699197  0.5199797  0.6989800    0.00000       Uiso       1.00
        C8          C  0.4823097  0.4520397  0.3209200    0.00000       Uiso       1.00
        C9          C  0.4551897  0.4249297  0.4570900    0.00000       Uiso       1.00
       C10          C  0.4514297  0.3933797  0.4517600    0.00000       Uiso       1.00
       C11          C  0.4752997  0.3882897  0.3120000    0.00000       Uiso       1.00
       C12          C  0.5016597  0.4147697  0.1626900    0.00000       Uiso       1.00
       C13          C  0.5049896  0.4460297  0.1674300    0.00000       Uiso       1.00
        N1          N  0.3684898  0.4932197  0.3258200    0.00000       Uiso       1.00
       C14          C  0.3394998  0.4672397  0.3005000    0.00000       Uiso       1.00
       C15          C  0.3104298  0.4708997  0.2792000    0.00000       Uiso       1.00
       C16          C  0.2806598  0.4464397  0.4034000    0.00000       Uiso       1.00
       C17          C  0.2543699  0.4523897  0.4351500    0.00000       Uiso       1.00
       C18          C  0.2575098  0.4821797  0.3303500    0.00000       Uiso       1.00
       C19          C  0.2871398  0.5061997  0.1992400    0.00000       Uiso       1.00
       C20          C  0.3135598  0.5005696  0.1709400    0.00000       Uiso       1.00
        N2          N  0.4719997  0.3570498  0.3188900    0.00000       Uiso       1.00
       C21          C  0.4981497  0.3542598  0.3459000    0.00000       Uiso       1.00
       C22          C  0.4953497  0.3217798  0.3349100    0.00000       Uiso       1.00
       C23          C  0.5208296  0.3168998  0.4430900    0.00000       Uiso       1.00
       C24          C  0.5168197  0.2851498  0.4423300    0.00000       Uiso       1.00
       C25          C  0.4872497  0.2583798  0.3366300    0.00000       Uiso       1.00
       C26          C  0.4617897  0.2633398  0.2282600    0.00000       Uiso       1.00
       C27          C  0.4659597  0.2949398  0.2248400    0.00000       Uiso       1.00
        H2          H  0.4312797  0.4484597  0.0112400    0.00000       Uiso       1.00
        H3          H  0.3796297  0.4534497 -0.0060900    0.00000       Uiso       1.00
        H4          H  0.4173898  0.5247597  0.6888700    0.00000       Uiso       1.00
        H5          H  0.4370497  0.4293297  0.5736100    0.00000       Uiso       1.00
        H6          H  0.4308797  0.3722598  0.5641900    0.00000       Uiso       1.00
        H7          H  0.5188797  0.4097897  0.0377100    0.00000       Uiso       1.00
        H8          H  0.5258996  0.4667597  0.0548500    0.00000       Uiso       1.00
        H9          H  0.3359098  0.4416397  0.3226800    0.00000       Uiso       1.00
       H10          H  0.2794098  0.4238397  0.4930900    0.00000       Uiso       1.00
       H11          H  0.2312099  0.4343897  0.5444700    0.00000       Uiso       1.00
       H12          H  0.2882298  0.5287097  0.1093100    0.00000       Uiso       1.00
       H13          H  0.3372498  0.5186797  0.0693600    0.00000       Uiso       1.00
       H14          H  0.5231397  0.3763598  0.3910300    0.00000       Uiso       1.00
       H15          H  0.5433297  0.3381898  0.5348600    0.00000       Uiso       1.00
       H16          H  0.5360796  0.2803698  0.5301100    0.00000       Uiso       1.00
       H17          H  0.4389897  0.2417598  0.1448600    0.00000       Uiso       1.00
       H18          H  0.4469297  0.3003698  0.1425600    0.00000       Uiso       1.00
       C28          C  0.5149497  0.0001600  0.3371500    0.00000       Uiso       1.00
       C29          C  0.5155497  0.9688994  0.3550000    0.00000       Uiso       1.00
       C30          C  0.5353296  0.9630194  0.1631600    0.00000       Uiso       1.00
       C31          C  0.5329397  0.9320894  0.1561500    0.00000       Uiso       1.00
       C32          C  0.5106697  0.9067295  0.3410300    0.00000       Uiso       1.00
       C33          C  0.4918297  0.9129194  0.5430000    0.00000       Uiso       1.00
       C34          C  0.4948597  0.9440994  0.5508400    0.00000       Uiso       1.00
       H19          H  0.4800197  0.9499394  0.6989800    0.00000       Uiso       1.00
       C35          C  0.5479596  0.0302700  0.3209200    0.00000       Uiso       1.00
       C36          C  0.5750696  0.0302600  0.4570900    0.00000       Uiso       1.00
       C37          C  0.6066196  0.0580500  0.4517600    0.00000       Uiso       1.00
       C38          C  0.6117096  0.0870099  0.3120000    0.00000       Uiso       1.00
       C39          C  0.5852296  0.0868899  0.1626900    0.00000       Uiso       1.00
       C40          C  0.5539696  0.0589600  0.1674300    0.00000       Uiso       1.00
        N3          N  0.5067797  0.8752695  0.3258200    0.00000       Uiso       1.00
       C41          C  0.5327597  0.8722594  0.3005000    0.00000       Uiso       1.00
       C42          C  0.5290996  0.8395295  0.2792000    0.00000       Uiso       1.00
       C43          C  0.5535596  0.8342194  0.4034000    0.00000       Uiso       1.00
       C44          C  0.5476096  0.8019795  0.4351500    0.00000       Uiso       1.00
       C45          C  0.5178196  0.7753295  0.3303500    0.00000       Uiso       1.00
       C46          C  0.4937997  0.7809395  0.1992400    0.00000       Uiso       1.00
       C47          C  0.4994297  0.8129895  0.1709400    0.00000       Uiso       1.00
        N4          N  0.6429496  0.1149499  0.3188900    0.00000       Uiso       1.00
       C48          C  0.6457396  0.1438899  0.3459000    0.00000       Uiso       1.00
       C49          C  0.6782196  0.1735699  0.3349100    0.00000       Uiso       1.00
       C50          C  0.6830995  0.2039299  0.4430900    0.00000       Uiso       1.00
       C51          C  0.7148495  0.2316699  0.4423300    0.00000       Uiso       1.00
       C52          C  0.7416195  0.2288699  0.3366300    0.00000       Uiso       1.00
       C53          C  0.7366595  0.1984499  0.2282600    0.00000       Uiso       1.00
       C54          C  0.7050595  0.1710199  0.2248400    0.00000       Uiso       1.00
       H20          H  0.5515396  0.9828193  0.0112400    0.00000       Uiso       1.00
       H21          H  0.5465497  0.9261794 -0.0060900    0.00000       Uiso       1.00
       H22          H  0.4752397  0.8926294  0.6888700    0.00000       Uiso       1.00
       H23          H  0.5706696  0.0077200  0.5736100    0.00000       Uiso       1.00
       H24          H  0.6277396  0.0586200  0.5641900    0.00000       Uiso       1.00
       H25          H  0.5902096  0.1090899  0.0377100    0.00000       Uiso       1.00
       H26          H  0.5332396  0.0591400  0.0548500    0.00000       Uiso       1.00
       H27          H  0.5583596  0.8942694  0.3226800    0.00000       Uiso       1.00
       H28          H  0.5761596  0.8555694  0.4930900    0.00000       Uiso       1.00
       H29          H  0.5656096  0.7968194  0.5444700    0.00000       Uiso       1.00
       H30          H  0.4712897  0.7595195  0.1093100    0.00000       Uiso       1.00
       H31          H  0.4813197  0.8185694  0.0693600    0.00000       Uiso       1.00
       H32          H  0.6236396  0.1467799  0.3910300    0.00000       Uiso       1.00
       H33          H  0.6618096  0.2051399  0.5348600    0.00000       Uiso       1.00
       H34          H  0.7196295  0.2557098  0.5301100    0.00000       Uiso       1.00
       H35          H  0.7582395  0.1972299  0.1448600    0.00000       Uiso       1.00
       H36          H  0.6996295  0.1465599  0.1425600    0.00000       Uiso       1.00
       C55          C  0.9998394  0.5147897  0.3371500    0.00000       Uiso       1.00
       C56          C  0.0311000  0.5466496  0.3550000    0.00000       Uiso       1.00
       C57          C  0.0369800  0.5723096  0.1631600    0.00000       Uiso       1.00
       C58          C  0.0679099  0.6008496  0.1561500    0.00000       Uiso       1.00
       C59          C  0.0932699  0.6039396  0.3410300    0.00000       Uiso       1.00
       C60          C  0.0870799  0.5789096  0.5430000    0.00000       Uiso       1.00
       C61          C  0.0559000  0.5507597  0.5508400    0.00000       Uiso       1.00
       H37          H  0.0500600  0.5300797  0.6989800    0.00000       Uiso       1.00
       C62          C  0.9697294  0.5176896  0.3209200    0.00000       Uiso       1.00
       C63          C  0.9697393  0.5448096  0.4570900    0.00000       Uiso       1.00
       C64          C  0.9419494  0.5485696  0.4517600    0.00000       Uiso       1.00
       C65          C  0.9129894  0.5246996  0.3120000    0.00000       Uiso       1.00
       C66          C  0.9131094  0.4983397  0.1626900    0.00000       Uiso       1.00
       C67          C  0.9410394  0.4950097  0.1674300    0.00000       Uiso       1.00
        N5          N  0.1247299  0.6315095  0.3258200    0.00000       Uiso       1.00
       C68          C  0.1277399  0.6604996  0.3005000    0.00000       Uiso       1.00
       C69          C  0.1604699  0.6895695  0.2792000    0.00000       Uiso       1.00
       C70          C  0.1657799  0.7193395  0.4034000    0.00000       Uiso       1.00
       C71          C  0.1980199  0.7456295  0.4351500    0.00000       Uiso       1.00
       C72          C  0.2246698  0.7424895  0.3303500    0.00000       Uiso       1.00
       C73          C  0.2190598  0.7128595  0.1992400    0.00000       Uiso       1.00
       C74          C  0.1870099  0.6864395  0.1709400    0.00000       Uiso       1.00
        N6          N  0.8850495  0.5279996  0.3188900    0.00000       Uiso       1.00
       C75          C  0.8561094  0.5018497  0.3459000    0.00000       Uiso       1.00
       C76          C  0.8264295  0.5046497  0.3349100    0.00000       Uiso       1.00
       C77          C  0.7960695  0.4791697  0.4430900    0.00000       Uiso       1.00
       C78          C  0.7683295  0.4831797  0.4423300    0.00000       Uiso       1.00
       C79          C  0.7711295  0.5127497  0.3366300    0.00000       Uiso       1.00
       C80          C  0.8015494  0.5382096  0.2282600    0.00000       Uiso       1.00
       C81          C  0.8289794  0.5340396  0.2248400    0.00000       Uiso       1.00
       H38          H  0.0171800  0.5687196  0.0112400    0.00000       Uiso       1.00
       H39          H  0.0738199  0.6203696 -0.0060900    0.00000       Uiso       1.00
       H40          H  0.1073699  0.5826096  0.6888700    0.00000       Uiso       1.00
       H41          H  0.9922794  0.5629496  0.5736100    0.00000       Uiso       1.00
       H42          H  0.9413794  0.5691196  0.5641900    0.00000       Uiso       1.00
       H43          H  0.8909094  0.4811197  0.0377100    0.00000       Uiso       1.00
       H44          H  0.9408594  0.4740997  0.0548500    0.00000       Uiso       1.00
       H45          H  0.1057299  0.6640896  0.3226800    0.00000       Uiso       1.00
       H46          H  0.1444299  0.7205895  0.4930900    0.00000       Uiso       1.00
       H47          H  0.2031799  0.7687895  0.5444700    0.00000       Uiso       1.00
       H48          H  0.2404799  0.7117695  0.1093100    0.00000       Uiso       1.00
       H49          H  0.1814299  0.6627496  0.0693600    0.00000       Uiso       1.00
       H50          H  0.8532194  0.4768597  0.3910300    0.00000       Uiso       1.00
       H51          H  0.7948595  0.4566697  0.5348600    0.00000       Uiso       1.00
       H52          H  0.7442895  0.4639197  0.5301100    0.00000       Uiso       1.00
       H53          H  0.8027695  0.5610096  0.1448600    0.00000       Uiso       1.00
       H54          H  0.8534395  0.5530697  0.1425600    0.00000       Uiso       1.00
       C82          C  0.5147896  0.5149496  0.3371500    0.00000       Uiso       1.00
       C83          C  0.5466496  0.5155497  0.3550000    0.00000       Uiso       1.00
       C84          C  0.5723096  0.5353296  0.1631600    0.00000       Uiso       1.00
       C85          C  0.6008496  0.5329396  0.1561500    0.00000       Uiso       1.00
       C86          C  0.6039396  0.5106696  0.3410300    0.00000       Uiso       1.00
       C87          C  0.5789096  0.4918297  0.5430000    0.00000       Uiso       1.00
       C88          C  0.5507596  0.4948596  0.5508400    0.00000       Uiso       1.00
       H55          H  0.5300797  0.4800197  0.6989800    0.00000       Uiso       1.00
       C89          C  0.5176896  0.5479596  0.3209200    0.00000       Uiso       1.00
       C90          C  0.5448096  0.5750697  0.4570900    0.00000       Uiso       1.00
       C91          C  0.5485696  0.6066196  0.4517600    0.00000       Uiso       1.00
       C92          C  0.5246996  0.6117096  0.3120000    0.00000       Uiso       1.00
       C93          C  0.4983397  0.5852296  0.1626900    0.00000       Uiso       1.00
       C94          C  0.4950097  0.5539696  0.1674300    0.00000       Uiso       1.00
        N7          N  0.6315096  0.5067797  0.3258200    0.00000       Uiso       1.00
       C95          C  0.6604996  0.5327597  0.3005000    0.00000       Uiso       1.00
       C96          C  0.6895695  0.5290996  0.2792000    0.00000       Uiso       1.00
       C97          C  0.7193395  0.5535596  0.4034000    0.00000       Uiso       1.00
       C98          C  0.7456295  0.5476096  0.4351500    0.00000       Uiso       1.00
       C99          C  0.7424895  0.5178196  0.3303500    0.00000       Uiso       1.00
      C100          C  0.7128595  0.4937997  0.1992400    0.00000       Uiso       1.00
      C101          C  0.6864395  0.4994296  0.1709400    0.00000       Uiso       1.00
        N8          N  0.5279996  0.6429496  0.3188900    0.00000       Uiso       1.00
      C102          C  0.5018497  0.6457396  0.3459000    0.00000       Uiso       1.00
      C103          C  0.5046496  0.6782196  0.3349100    0.00000       Uiso       1.00
      C104          C  0.4791697  0.6830996  0.4430900    0.00000       Uiso       1.00
      C105          C  0.4831797  0.7148495  0.4423300    0.00000       Uiso       1.00
      C106          C  0.5127497  0.7416195  0.3366300    0.00000       Uiso       1.00
      C107          C  0.5382096  0.7366595  0.2282600    0.00000       Uiso       1.00
      C108          C  0.5340397  0.7050595  0.2248400    0.00000       Uiso       1.00
       H56          H  0.5687196  0.5515397  0.0112400    0.00000       Uiso       1.00
       H57          H  0.6203696  0.5465497 -0.0060900    0.00000       Uiso       1.00
       H58          H  0.5826096  0.4752397  0.6888700    0.00000       Uiso       1.00
       H59          H  0.5629497  0.5706697  0.5736100    0.00000       Uiso       1.00
       H60          H  0.5691196  0.6277396  0.5641900    0.00000       Uiso       1.00
       H61          H  0.4811197  0.5902096  0.0377100    0.00000       Uiso       1.00
       H62          H  0.4740997  0.5332397  0.0548500    0.00000       Uiso       1.00
       H63          H  0.6640896  0.5583596  0.3226800    0.00000       Uiso       1.00
       H64          H  0.7205895  0.5761596  0.4930900    0.00000       Uiso       1.00
       H65          H  0.7687895  0.5656096  0.5444700    0.00000       Uiso       1.00
       H66          H  0.7117695  0.4712897  0.1093100    0.00000       Uiso       1.00
       H67          H  0.6627495  0.4813197  0.0693600    0.00000       Uiso       1.00
       H68          H  0.4768597  0.6236396  0.3910300    0.00000       Uiso       1.00
       H69          H  0.4566697  0.6618096  0.5348600    0.00000       Uiso       1.00
       H70          H  0.4639197  0.7196295  0.5301100    0.00000       Uiso       1.00
       H71          H  0.5610096  0.7582395  0.1448600    0.00000       Uiso       1.00
       H72          H  0.5530697  0.6996295  0.1425600    0.00000       Uiso       1.00
      C109          C  0.4850497  0.9998394  0.3371500    0.00000       Uiso       1.00
      C110          C  0.4844497  0.0311000  0.3550000    0.00000       Uiso       1.00
      C111          C  0.4646697  0.0369800  0.1631600    0.00000       Uiso       1.00
      C112          C  0.4670597  0.0679100  0.1561500    0.00000       Uiso       1.00
      C113          C  0.4893297  0.0932699  0.3410300    0.00000       Uiso       1.00
      C114          C  0.5081697  0.0870799  0.5430000    0.00000       Uiso       1.00
      C115          C  0.5051396  0.0559000  0.5508400    0.00000       Uiso       1.00
       H73          H  0.5199797  0.0500600  0.6989800    0.00000       Uiso       1.00
      C116          C  0.4520397  0.9697294  0.3209200    0.00000       Uiso       1.00
      C117          C  0.4249297  0.9697393  0.4570900    0.00000       Uiso       1.00
      C118          C  0.3933797  0.9419494  0.4517600    0.00000       Uiso       1.00
      C119          C  0.3882897  0.9129894  0.3120000    0.00000       Uiso       1.00
      C120          C  0.4147697  0.9131094  0.1626900    0.00000       Uiso       1.00
      C121          C  0.4460297  0.9410393  0.1674300    0.00000       Uiso       1.00
        N9          N  0.4932197  0.1247299  0.3258200    0.00000       Uiso       1.00
      C122          C  0.4672397  0.1277399  0.3005000    0.00000       Uiso       1.00
      C123          C  0.4708997  0.1604699  0.2792000    0.00000       Uiso       1.00
      C124          C  0.4464397  0.1657799  0.4034000    0.00000       Uiso       1.00
      C125          C  0.4523897  0.1980199  0.4351500    0.00000       Uiso       1.00
      C126          C  0.4821797  0.2246699  0.3303500    0.00000       Uiso       1.00
      C127          C  0.5061997  0.2190599  0.1992400    0.00000       Uiso       1.00
      C128          C  0.5005697  0.1870099  0.1709400    0.00000       Uiso       1.00
       N10          N  0.3570498  0.8850494  0.3188900    0.00000       Uiso       1.00
      C129          C  0.3542598  0.8561094  0.3459000    0.00000       Uiso       1.00
      C130          C  0.3217798  0.8264295  0.3349100    0.00000       Uiso       1.00
      C131          C  0.3168998  0.7960694  0.4430900    0.00000       Uiso       1.00
      C132          C  0.2851498  0.7683295  0.4423300    0.00000       Uiso       1.00
      C133          C  0.2583798  0.7711295  0.3366300    0.00000       Uiso       1.00
      C134          C  0.2633398  0.8015495  0.2282600    0.00000       Uiso       1.00
      C135          C  0.2949398  0.8289795  0.2248400    0.00000       Uiso       1.00
       H74          H  0.4484597  0.0171800  0.0112400    0.00000       Uiso       1.00
       H75          H  0.4534497  0.0738200 -0.0060900    0.00000       Uiso       1.00
       H76          H  0.5247597  0.1073699  0.6888700    0.00000       Uiso       1.00
       H77          H  0.4293297  0.9922794  0.5736100    0.00000       Uiso       1.00
       H78          H  0.3722597  0.9413794  0.5641900    0.00000       Uiso       1.00
       H79          H  0.4097897  0.8909094  0.0377100    0.00000       Uiso       1.00
       H80          H  0.4667597  0.9408594  0.0548500    0.00000       Uiso       1.00
       H81          H  0.4416397  0.1057299  0.3226800    0.00000       Uiso       1.00
       H82          H  0.4238397  0.1444299  0.4930900    0.00000       Uiso       1.00
       H83          H  0.4343897  0.2031799  0.5444700    0.00000       Uiso       1.00
       H84          H  0.5287097  0.2404798  0.1093100    0.00000       Uiso       1.00
       H85          H  0.5186796  0.1814299  0.0693600    0.00000       Uiso       1.00
       H86          H  0.3763598  0.8532194  0.3910300    0.00000       Uiso       1.00
       H87          H  0.3381898  0.7948595  0.5348600    0.00000       Uiso       1.00
       H88          H  0.2803698  0.7442895  0.5301100    0.00000       Uiso       1.00
       H89          H  0.2417598  0.8027695  0.1448600    0.00000       Uiso       1.00
       H90          H  0.3003698  0.8534394  0.1425600    0.00000       Uiso       1.00
      C136          C  0.0001600  0.4852097  0.3371500    0.00000       Uiso       1.00
      C137          C  0.9688994  0.4533497  0.3550000    0.00000       Uiso       1.00
      C138          C  0.9630194  0.4276897  0.1631600    0.00000       Uiso       1.00
      C139          C  0.9320893  0.3991497  0.1561500    0.00000       Uiso       1.00
      C140          C  0.9067294  0.3960598  0.3410300    0.00000       Uiso       1.00
      C141          C  0.9129194  0.4210897  0.5430000    0.00000       Uiso       1.00
      C142          C  0.9440994  0.4492397  0.5508400    0.00000       Uiso       1.00
       H91          H  0.9499394  0.4699197  0.6989800    0.00000       Uiso       1.00
      C143          C  0.0302700  0.4823097  0.3209200    0.00000       Uiso       1.00
      C144          C  0.0302600  0.4551897  0.4570900    0.00000       Uiso       1.00
      C145          C  0.0580500  0.4514297  0.4517600    0.00000       Uiso       1.00
      C146          C  0.0870099  0.4752997  0.3120000    0.00000       Uiso       1.00
      C147          C  0.0868899  0.5016597  0.1626900    0.00000       Uiso       1.00
      C148          C  0.0589599  0.5049896  0.1674300    0.00000       Uiso       1.00
       N11          N  0.8752694  0.3684897  0.3258200    0.00000       Uiso       1.00
      C149          C  0.8722594  0.3394998  0.3005000    0.00000       Uiso       1.00
      C150          C  0.8395295  0.3104298  0.2792000    0.00000       Uiso       1.00
      C151          C  0.8342195  0.2806598  0.4034000    0.00000       Uiso       1.00
      C152          C  0.8019795  0.2543698  0.4351500    0.00000       Uiso       1.00
      C153          C  0.7753295  0.2575098  0.3303500    0.00000       Uiso       1.00
      C154          C  0.7809395  0.2871398  0.1992400    0.00000       Uiso       1.00
      C155          C  0.8129895  0.3135598  0.1709400    0.00000       Uiso       1.00
       N12          N  0.1149499  0.4719997  0.3188900    0.00000       Uiso       1.00
      C156          C  0.1438899  0.4981497  0.3459000    0.00000       Uiso       1.00
      C157          C  0.1735699  0.4953497  0.3349100    0.00000       Uiso       1.00
      C158          C  0.2039299  0.5208297  0.4430900    0.00000       Uiso       1.00
      C159          C  0.2316698  0.5168197  0.4423300    0.00000       Uiso       1.00
      C160          C  0.2288699  0.4872497  0.3366300    0.00000       Uiso       1.00
      C161          C  0.1984499  0.4617897  0.2282600    0.00000       Uiso       1.00
      C162          C  0.1710199  0.4659597  0.2248400    0.00000       Uiso       1.00
       H92          H  0.9828193  0.4312797  0.0112400    0.00000       Uiso       1.00
       H93          H  0.9261793  0.3796298 -0.0060900    0.00000       Uiso       1.00
       H94          H  0.8926294  0.4173898  0.6888700    0.00000       Uiso       1.00
       H95          H  0.0077200  0.4370497  0.5736100    0.00000       Uiso       1.00
       H96          H  0.0586200  0.4308797  0.5641900    0.00000       Uiso       1.00
       H97          H  0.1090899  0.5188797  0.0377100    0.00000       Uiso       1.00
       H98          H  0.0591400  0.5258996  0.0548500    0.00000       Uiso       1.00
       H99          H  0.8942695  0.3359098  0.3226800    0.00000       Uiso       1.00
      H100          H  0.8555694  0.2794098  0.4930900    0.00000       Uiso       1.00
      H101          H  0.7968195  0.2312098  0.5444700    0.00000       Uiso       1.00
      H102          H  0.7595195  0.2882298  0.1093100    0.00000       Uiso       1.00
      H103          H  0.8185694  0.3372498  0.0693600    0.00000       Uiso       1.00
      H104          H  0.1467799  0.5231397  0.3910300    0.00000       Uiso       1.00
      H105          H  0.2051399  0.5433297  0.5348600    0.00000       Uiso       1.00
      H106          H  0.2557098  0.5360796  0.5301100    0.00000       Uiso       1.00
      H107          H  0.1972299  0.4389897  0.1448600    0.00000       Uiso       1.00
      H108          H  0.1465599  0.4469297  0.1425600    0.00000       Uiso       1.00
