data_DmaTph-23
_audit_creation_date              0000-00-00
_audit_creation_method            'LanYouShi'
_symmetry_space_group_name_H-M    'P1'
_cell_length_a                    6.7262998
_cell_length_b                    40.0275993
_cell_length_c                    32.5903015
_cell_angle_alpha                 90.0000000
_cell_angle_beta                  90.0000000
_cell_angle_gamma                 90.0000000
loop_
_atom_site_label
_atom_site_type_symbol
_atom_site_fract_x
_atom_site_fract_y
_atom_site_fract_z
_atom_site_U_iso_or_equiv
_atom_site_adp_type
_atom_site_occupancy
        C1          C  0.4999983  0.7467015  0.0174605    0.00000       Uiso       1.00
        C2          C  0.4999983  0.2375459  0.6027988    0.00000       Uiso       1.00
        C3          C  0.4999983  0.2467019  0.5174611    0.00000       Uiso       1.00
        C4          C  0.4999983  0.7375455  0.1027981    0.00000       Uiso       1.00
        C5          C  0.4999983  0.2532977  0.0174605    0.00000       Uiso       1.00
        C6          C  0.4999983  0.7624533  0.6027988    0.00000       Uiso       1.00
        C7          C  0.4999983  0.7532974  0.5174611    0.00000       Uiso       1.00
        C8          C  0.4999983  0.2624537  0.1027981    0.00000       Uiso       1.00
        C9          C  0.4999983  0.7082705  0.0765083    0.00000       Uiso       1.00
       C10          C  0.4999983  0.2740186  0.5433147    0.00000       Uiso       1.00
       C11          C  0.4999983  0.2082708  0.5765089    0.00000       Uiso       1.00
       C12          C  0.4999983  0.7740183  0.0433140    0.00000       Uiso       1.00
       C13          C  0.4999983  0.2917288  0.0765083    0.00000       Uiso       1.00
       C14          C  0.4999983  0.7259806  0.5433147    0.00000       Uiso       1.00
       C15          C  0.4999983  0.7917284  0.5765089    0.00000       Uiso       1.00
       C16          C  0.4999983  0.2259810  0.0433140    0.00000       Uiso       1.00
       C17          C  0.4999983  0.7996507  0.1127874    0.00000       Uiso       1.00
       C18          C  0.4999983  0.1890102  0.4970568    0.00000       Uiso       1.00
       C19          C  0.4999983  0.2996511  0.6127880    0.00000       Uiso       1.00
       C20          C  0.4999983  0.6890098  0.9970575    0.00000       Uiso       1.00
       C21          C  0.4999983  0.2003485  0.1127874    0.00000       Uiso       1.00
       C22          C  0.4999983  0.8109891  0.4970568    0.00000       Uiso       1.00
       C23          C  0.4999983  0.7003481  0.6127880    0.00000       Uiso       1.00
       C24          C  0.4999983  0.3109895  0.9970575    0.00000       Uiso       1.00
       C25          C  0.4999983  0.7135258  0.0321467    0.00000       Uiso       1.00
       C26          C  0.4999983  0.2698501  0.5856161    0.00000       Uiso       1.00
       C27          C  0.4999983  0.2135262  0.5321473    0.00000       Uiso       1.00
       C28          C  0.4999983  0.7698498  0.0856154    0.00000       Uiso       1.00
       C29          C  0.4999983  0.2864734  0.0321467    0.00000       Uiso       1.00
       C30          C  0.4999983  0.7301491  0.5856161    0.00000       Uiso       1.00
       C31          C  0.4999983  0.7864731  0.5321473    0.00000       Uiso       1.00
       C32          C  0.4999983  0.2301495  0.0856154    0.00000       Uiso       1.00
        N1          N  0.4999983  0.6569262  0.0005029    0.00000       Uiso       1.00
        N2          N  0.4999983  0.3297811  0.5979089    0.00000       Uiso       1.00
        N3          N  0.4999983  0.1569266  0.5005035    0.00000       Uiso       1.00
        N4          N  0.4999983  0.8297807  0.0979082    0.00000       Uiso       1.00
        N5          N  0.4999983  0.3430731  0.0005029    0.00000       Uiso       1.00
        N6          N  0.4999983  0.6702181  0.5979089    0.00000       Uiso       1.00
        N7          N  0.4999983  0.8430727  0.5005035    0.00000       Uiso       1.00
        N8          N  0.4999983  0.1702185  0.0979082    0.00000       Uiso       1.00
        N9          N  0.4999983  0.0573984  0.2909173    0.00000       Uiso       1.00
       N10          N  0.4999983  0.5573980  0.7909179    0.00000       Uiso       1.00
       N11          N  0.4999983  0.9426008  0.2909173    0.00000       Uiso       1.00
       N12          N  0.4999983  0.4426013  0.7909179    0.00000       Uiso       1.00
        H1          H  0.4999983  0.0334404  0.2908792    0.00000       Uiso       1.00
        H2          H  0.4999983  0.5334400  0.7908799    0.00000       Uiso       1.00
        H3          H  0.4999983  0.9665589  0.2908792    0.00000       Uiso       1.00
        H4          H  0.4999983  0.4665593  0.7908799    0.00000       Uiso       1.00
       C33          C  0.4999983  0.9243349  0.3253616    0.00000       Uiso       1.00
       C34          C  0.4999983  0.0756492  0.2564866    0.00000       Uiso       1.00
       C35          C  0.4999983  0.4243353  0.8253622    0.00000       Uiso       1.00
       C36          C  0.4999983  0.5756488  0.7564872    0.00000       Uiso       1.00
       C37          C  0.4999983  0.0756643  0.3253616    0.00000       Uiso       1.00
       C38          C  0.4999983  0.9243501  0.2564866    0.00000       Uiso       1.00
       C39          C  0.4999983  0.5756639  0.8253622    0.00000       Uiso       1.00
       C40          C  0.4999983  0.4243504  0.7564872    0.00000       Uiso       1.00
       C41          C  0.4999983  0.8912261  0.3125095    0.00000       Uiso       1.00
       C42          C  0.4999983  0.1087714  0.2693920    0.00000       Uiso       1.00
       C43          C  0.4999983  0.3912265  0.8125102    0.00000       Uiso       1.00
       C44          C  0.4999983  0.6087710  0.7693926    0.00000       Uiso       1.00
       C45          C  0.4999983  0.1087731  0.3125095    0.00000       Uiso       1.00
       C46          C  0.4999983  0.8912279  0.2693920    0.00000       Uiso       1.00
       C47          C  0.4999983  0.6087728  0.8125102    0.00000       Uiso       1.00
       C48          C  0.4999983  0.3912283  0.7693926    0.00000       Uiso       1.00
        H5          H  0.4999983  0.8694099  0.3320803    0.00000       Uiso       1.00
        H6          H  0.4999983  0.1306112  0.2498614    0.00000       Uiso       1.00
        H7          H  0.4999983  0.3694102  0.8320810    0.00000       Uiso       1.00
        H8          H  0.4999983  0.6306109  0.7498621    0.00000       Uiso       1.00
        H9          H  0.4999983  0.1305894  0.3320803    0.00000       Uiso       1.00
       H10          H  0.4999983  0.8693880  0.2498614    0.00000       Uiso       1.00
       H11          H  0.4999983  0.6305891  0.8320810    0.00000       Uiso       1.00
       H12          H  0.4999983  0.3693884  0.7498621    0.00000       Uiso       1.00
       N13          N  0.4999983  0.4999996  0.7224614    0.00000       Uiso       1.00
       N14          N  0.4999983  0.4999996  0.8592296    0.00000       Uiso       1.00
       N15          N  0.4999983  0.0000000  0.2224607    0.00000       Uiso       1.00
       N16          N  0.4999983  0.0000000  0.3592290    0.00000       Uiso       1.00
       C49          C  0.4999983  0.5294116  0.6983622    0.00000       Uiso       1.00
       C50          C  0.4999983  0.4706058  0.8833409    0.00000       Uiso       1.00
       C51          C  0.4999983  0.0294120  0.1983615    0.00000       Uiso       1.00
       C52          C  0.4999983  0.9706053  0.3833402    0.00000       Uiso       1.00
       C53          C  0.4999983  0.4705877  0.6983622    0.00000       Uiso       1.00
       C54          C  0.4999983  0.5293935  0.8833409    0.00000       Uiso       1.00
       C55          C  0.4999983  0.9705873  0.1983615    0.00000       Uiso       1.00
       C56          C  0.4999983  0.0293939  0.3833402    0.00000       Uiso       1.00
       C57          C  0.4999983  0.5168725  0.6557854    0.00000       Uiso       1.00
       C58          C  0.4999983  0.4831430  0.9259242    0.00000       Uiso       1.00
       C59          C  0.4999983  0.0168729  0.1557848    0.00000       Uiso       1.00
       C60          C  0.4999983  0.9831427  0.4259235    0.00000       Uiso       1.00
       C61          C  0.4999983  0.4831267  0.6557854    0.00000       Uiso       1.00
       C62          C  0.4999983  0.5168562  0.9259242    0.00000       Uiso       1.00
       C63          C  0.4999983  0.9831263  0.1557848    0.00000       Uiso       1.00
       C64          C  0.4999983  0.0168566  0.4259235    0.00000       Uiso       1.00
       H13          H  0.4999983  0.5321864  0.6284377    0.00000       Uiso       1.00
       H14          H  0.4999983  0.4678473  0.9532862    0.00000       Uiso       1.00
       H15          H  0.4999983  0.0321868  0.1284370    0.00000       Uiso       1.00
       H16          H  0.4999983  0.9678469  0.4532855    0.00000       Uiso       1.00
       H17          H  0.4999983  0.4678128  0.6284377    0.00000       Uiso       1.00
       H18          H  0.4999983  0.5321519  0.9532862    0.00000       Uiso       1.00
       H19          H  0.4999983  0.9678124  0.1284370    0.00000       Uiso       1.00
       H20          H  0.4999983  0.0321523  0.4532855    0.00000       Uiso       1.00
       C65          C  0.4999983  0.9376437  0.3698128    0.00000       Uiso       1.00
       C66          C  0.4999983  0.0623530  0.2119817    0.00000       Uiso       1.00
       C67          C  0.4999983  0.4376441  0.8698135    0.00000       Uiso       1.00
       C68          C  0.4999983  0.5623527  0.7119824    0.00000       Uiso       1.00
       C69          C  0.4999983  0.0623555  0.3698128    0.00000       Uiso       1.00
       C70          C  0.4999983  0.9376462  0.2119817    0.00000       Uiso       1.00
       C71          C  0.4999983  0.5623552  0.8698135    0.00000       Uiso       1.00
       C72          C  0.4999983  0.4376466  0.7119824    0.00000       Uiso       1.00
       C73          C  0.4999983  0.9117612  0.4019671    0.00000       Uiso       1.00
       C74          C  0.4999983  0.0885546  0.1802326    0.00000       Uiso       1.00
       C75          C  0.4999983  0.4117616  0.9019678    0.00000       Uiso       1.00
       C76          C  0.4999983  0.5885542  0.6802333    0.00000       Uiso       1.00
       C77          C  0.4999983  0.0882380  0.4019671    0.00000       Uiso       1.00
       C78          C  0.4999983  0.9114447  0.1802326    0.00000       Uiso       1.00
       C79          C  0.4999983  0.5882376  0.9019678    0.00000       Uiso       1.00
       C80          C  0.4999983  0.4114450  0.6802333    0.00000       Uiso       1.00
       C81          C  0.6802590  0.6017281  0.6659510    0.00000       Uiso       1.00
       C82          C  0.6802705  0.3998745  0.9178689    0.00000       Uiso       1.00
       C83          C  0.6802590  0.1017285  0.1659503    0.00000       Uiso       1.00
       C84          C  0.6802705  0.8998742  0.4178682    0.00000       Uiso       1.00
       C85          C  0.3197377  0.3982711  0.6659510    0.00000       Uiso       1.00
       C86          C  0.3197262  0.6001248  0.9178689    0.00000       Uiso       1.00
       C87          C  0.3197377  0.8982708  0.1659503    0.00000       Uiso       1.00
       C88          C  0.3197262  0.1001252  0.4178682    0.00000       Uiso       1.00
       C89          C  0.6802590  0.3982711  0.6659510    0.00000       Uiso       1.00
       C90          C  0.6802705  0.6001248  0.9178689    0.00000       Uiso       1.00
       C91          C  0.6802590  0.8982708  0.1659503    0.00000       Uiso       1.00
       C92          C  0.6802705  0.1001252  0.4178682    0.00000       Uiso       1.00
       C93          C  0.3197377  0.6017281  0.6659510    0.00000       Uiso       1.00
       C94          C  0.3197262  0.3998745  0.9178689    0.00000       Uiso       1.00
       C95          C  0.3197377  0.1017285  0.1659503    0.00000       Uiso       1.00
       C96          C  0.3197262  0.8998742  0.4178682    0.00000       Uiso       1.00
       H21          H  0.8199199  0.9090772  0.4058614    0.00000       Uiso       1.00
       H22          H  0.8198876  0.0918111  0.1770904    0.00000       Uiso       1.00
       H23          H  0.8199199  0.4090775  0.9058620    0.00000       Uiso       1.00
       H24          H  0.8198876  0.5918107  0.6770910    0.00000       Uiso       1.00
       H25          H  0.1800767  0.0909221  0.4058614    0.00000       Uiso       1.00
       H26          H  0.1801090  0.9081882  0.1770904    0.00000       Uiso       1.00
       H27          H  0.1800767  0.5909217  0.9058620    0.00000       Uiso       1.00
       H28          H  0.1801090  0.4081886  0.6770910    0.00000       Uiso       1.00
       H29          H  0.8199199  0.0909221  0.4058614    0.00000       Uiso       1.00
       H30          H  0.8198876  0.9081882  0.1770904    0.00000       Uiso       1.00
       H31          H  0.8199199  0.5909217  0.9058620    0.00000       Uiso       1.00
       H32          H  0.8198876  0.4081886  0.6770910    0.00000       Uiso       1.00
       H33          H  0.1800767  0.9090772  0.4058614    0.00000       Uiso       1.00
       H34          H  0.1801090  0.0918111  0.1770904    0.00000       Uiso       1.00
       H35          H  0.1800767  0.4090775  0.9058620    0.00000       Uiso       1.00
       H36          H  0.1801090  0.5918107  0.6770910    0.00000       Uiso       1.00
       C97          C  0.6798913  0.8766084  0.4499202    0.00000       Uiso       1.00
       C98          C  0.6799371  0.1282447  0.1379635    0.00000       Uiso       1.00
       C99          C  0.6798913  0.3766088  0.9499209    0.00000       Uiso       1.00
      C100          C  0.6799371  0.6282443  0.6379642    0.00000       Uiso       1.00
      C101          C  0.3201053  0.1233908  0.4499202    0.00000       Uiso       1.00
      C102          C  0.3200596  0.8717545  0.1379635    0.00000       Uiso       1.00
      C103          C  0.3201053  0.6233904  0.9499209    0.00000       Uiso       1.00
      C104          C  0.3200596  0.3717549  0.6379642    0.00000       Uiso       1.00
      C105          C  0.6798913  0.1233908  0.4499202    0.00000       Uiso       1.00
      C106          C  0.6799371  0.8717545  0.1379635    0.00000       Uiso       1.00
      C107          C  0.6798913  0.6233904  0.9499209    0.00000       Uiso       1.00
      C108          C  0.6799371  0.3717549  0.6379642    0.00000       Uiso       1.00
      C109          C  0.3201053  0.8766084  0.4499202    0.00000       Uiso       1.00
      C110          C  0.3200596  0.1282447  0.1379635    0.00000       Uiso       1.00
      C111          C  0.3201053  0.3766088  0.9499209    0.00000       Uiso       1.00
      C112          C  0.3200596  0.6282443  0.6379642    0.00000       Uiso       1.00
       H37          H  0.8183542  0.8678094  0.4628060    0.00000       Uiso       1.00
       H38          H  0.8184890  0.1388634  0.1273796    0.00000       Uiso       1.00
       H39          H  0.8183542  0.3678098  0.9628067    0.00000       Uiso       1.00
       H40          H  0.8184890  0.6388630  0.6273803    0.00000       Uiso       1.00
       H41          H  0.1816424  0.1321898  0.4628060    0.00000       Uiso       1.00
       H42          H  0.1815078  0.8611358  0.1273796    0.00000       Uiso       1.00
       H43          H  0.1816424  0.6321895  0.9628067    0.00000       Uiso       1.00
       H44          H  0.1815078  0.3611362  0.6273803    0.00000       Uiso       1.00
       H45          H  0.8183542  0.1321898  0.4628060    0.00000       Uiso       1.00
       H46          H  0.8184890  0.8611358  0.1273796    0.00000       Uiso       1.00
       H47          H  0.8183542  0.6321895  0.9628067    0.00000       Uiso       1.00
       H48          H  0.8184890  0.3611362  0.6273803    0.00000       Uiso       1.00
       H49          H  0.1816424  0.8678094  0.4628060    0.00000       Uiso       1.00
       H50          H  0.1815078  0.1388634  0.1273796    0.00000       Uiso       1.00
       H51          H  0.1816424  0.3678098  0.9628067    0.00000       Uiso       1.00
       H52          H  0.1815078  0.6388630  0.6273803    0.00000       Uiso       1.00
      C113          C  0.4999983  0.8650138  0.4659778    0.00000       Uiso       1.00
      C114          C  0.4999983  0.1417321  0.1242727    0.00000       Uiso       1.00
      C115          C  0.4999983  0.3650143  0.9659784    0.00000       Uiso       1.00
      C116          C  0.4999983  0.6417318  0.6242734    0.00000       Uiso       1.00
      C117          C  0.4999983  0.1349854  0.4659778    0.00000       Uiso       1.00
      C118          C  0.4999983  0.8582671  0.1242727    0.00000       Uiso       1.00
      C119          C  0.4999983  0.6349850  0.9659784    0.00000       Uiso       1.00
      C120          C  0.4999983  0.3582675  0.6242734    0.00000       Uiso       1.00
       H53          H  0.6385094  0.8601760  0.5631506    0.00000       Uiso       1.00
       H54          H  0.6358929  0.8081897  0.6629472    0.00000       Uiso       1.00
       H55          H  0.6385094  0.3601764  0.0631499    0.00000       Uiso       1.00
       H56          H  0.6358929  0.3081901  0.1629465    0.00000       Uiso       1.00
       H57          H  0.3614873  0.1398232  0.5631506    0.00000       Uiso       1.00
       H58          H  0.3641038  0.1918095  0.6629472    0.00000       Uiso       1.00
       H59          H  0.3614873  0.6398228  0.0631499    0.00000       Uiso       1.00
       H60          H  0.3641038  0.6918092  0.1629465    0.00000       Uiso       1.00
       H61          H  0.6385094  0.1398232  0.5631506    0.00000       Uiso       1.00
       H62          H  0.6358929  0.1918095  0.6629472    0.00000       Uiso       1.00
       H63          H  0.6385094  0.6398228  0.0631499    0.00000       Uiso       1.00
       H64          H  0.6358929  0.6918092  0.1629465    0.00000       Uiso       1.00
       H65          H  0.3614873  0.8601760  0.5631506    0.00000       Uiso       1.00
       H66          H  0.3641038  0.8081897  0.6629472    0.00000       Uiso       1.00
       H67          H  0.3614873  0.3601764  0.0631499    0.00000       Uiso       1.00
       H68          H  0.3641038  0.3081901  0.1629465    0.00000       Uiso       1.00
       H69          H  0.4999983  0.7520238  0.9848018    0.00000       Uiso       1.00
        O1          O  0.4999983  0.6771020  0.0978812    0.00000       Uiso       1.00
       H70          H  0.4999983  0.7961376  0.1458426    0.00000       Uiso       1.00
        O2          O  0.4999983  0.2371684  0.6467192    0.00000       Uiso       1.00
       H71          H  0.4999983  0.2989109  0.5301031    0.00000       Uiso       1.00
       H72          H  0.4999983  0.1990734  0.4660720    0.00000       Uiso       1.00
      C121          C  0.4999983  0.8555248  0.5808619    0.00000       Uiso       1.00
       H73          H  0.4999983  0.8738759  0.6063492    0.00000       Uiso       1.00
      C122          C  0.4999983  0.7932890  0.6695621    0.00000       Uiso       1.00
       H74          H  0.4999983  0.7873147  0.7027905    0.00000       Uiso       1.00
       H75          H  0.4999983  0.2520241  0.4848011    0.00000       Uiso       1.00
        O3          O  0.4999983  0.1771024  0.5978819    0.00000       Uiso       1.00
       H76          H  0.4999983  0.2961380  0.6458432    0.00000       Uiso       1.00
        O4          O  0.4999983  0.7371680  0.1467185    0.00000       Uiso       1.00
       H77          H  0.4999983  0.7989106  0.0301025    0.00000       Uiso       1.00
       H78          H  0.4999983  0.6990731  0.9660726    0.00000       Uiso       1.00
      C123          C  0.4999983  0.3555252  0.0808612    0.00000       Uiso       1.00
       H79          H  0.4999983  0.3738762  0.1063485    0.00000       Uiso       1.00
      C124          C  0.4999983  0.2932894  0.1695614    0.00000       Uiso       1.00
       H80          H  0.4999983  0.2873151  0.2027898    0.00000       Uiso       1.00
       H81          H  0.4999983  0.2479755  0.9848018    0.00000       Uiso       1.00
        O5          O  0.4999983  0.3228973  0.0978812    0.00000       Uiso       1.00
       H82          H  0.4999983  0.2038617  0.1458426    0.00000       Uiso       1.00
        O6          O  0.4999983  0.7628309  0.6467192    0.00000       Uiso       1.00
       H83          H  0.4999983  0.7010883  0.5301031    0.00000       Uiso       1.00
       H84          H  0.4999983  0.8009259  0.4660720    0.00000       Uiso       1.00
      C125          C  0.4999983  0.1444744  0.5808619    0.00000       Uiso       1.00
       H85          H  0.4999983  0.1261234  0.6063492    0.00000       Uiso       1.00
      C126          C  0.4999983  0.2067103  0.6695621    0.00000       Uiso       1.00
       H86          H  0.4999983  0.2126845  0.7027905    0.00000       Uiso       1.00
       H87          H  0.4999983  0.7479752  0.4848011    0.00000       Uiso       1.00
        O7          O  0.4999983  0.8228969  0.5978819    0.00000       Uiso       1.00
       H88          H  0.4999983  0.7038614  0.6458432    0.00000       Uiso       1.00
        O8          O  0.4999983  0.2628312  0.1467185    0.00000       Uiso       1.00
       H89          H  0.4999983  0.2010887  0.0301025    0.00000       Uiso       1.00
       H90          H  0.4999983  0.3009262  0.9660726    0.00000       Uiso       1.00
      C127          C  0.4999983  0.6444740  0.0808612    0.00000       Uiso       1.00
       H91          H  0.4999983  0.6261231  0.1063485    0.00000       Uiso       1.00
      C128          C  0.4999983  0.7067099  0.1695614    0.00000       Uiso       1.00
       H92          H  0.4999983  0.7126842  0.2027898    0.00000       Uiso       1.00
       H93          H  0.4999983  0.4999996  0.7520296    0.00000       Uiso       1.00
       H94          H  0.4999983  0.4999996  0.8296827    0.00000       Uiso       1.00
       H95          H  0.4999983  0.0000000  0.2520289    0.00000       Uiso       1.00
       H96          H  0.4999983  0.0000000  0.3296821    0.00000       Uiso       1.00
