data_crystal
 
_cell_length_a    6.72630
_cell_length_b    40.02760
_cell_length_c    32.59030
_cell_angle_alpha 90.00000
_cell_angle_beta  90.00000
_cell_angle_gamma 90.00000
 
_symmetry_space_group_name_Hall 'P 1'
_symmetry_space_group_name_H-M  'P 1'
 
loop_
_symmetry_equiv_pos_as_xyz
 'x,y,z' 
 
loop_
_atom_site_label
_atom_site_type_symbol
_atom_site_fract_x
_atom_site_fract_y
_atom_site_fract_z
_atom_site_charge
C          C       0.50000   0.74670   0.01746   0.0000000000
C          C       0.50000   0.23755   0.60280   0.0000000000
C          C       0.50000   0.24670   0.51746   0.0000000000
C          C       0.50000   0.73755   0.10280   0.0000000000
C          C       0.50000   0.25330   0.01746   0.0000000000
C          C       0.50000   0.76245   0.60280   0.0000000000
C          C       0.50000   0.75330   0.51746   0.0000000000
C          C       0.50000   0.26245   0.10280   0.0000000000
C          C       0.50000   0.70827   0.07651   0.0000000000
C          C       0.50000   0.27402   0.54331   0.0000000000
C          C       0.50000   0.20827   0.57651   0.0000000000
C          C       0.50000   0.77402   0.04331   0.0000000000
C          C       0.50000   0.29173   0.07651   0.0000000000
C          C       0.50000   0.72598   0.54331   0.0000000000
C          C       0.50000   0.79173   0.57651   0.0000000000
C          C       0.50000   0.22598   0.04331   0.0000000000
C          C       0.50000   0.79965   0.11279   0.0000000000
C          C       0.50000   0.18901   0.49706   0.0000000000
C          C       0.50000   0.29965   0.61279   0.0000000000
C          C       0.50000   0.68901   0.99706   0.0000000000
C          C       0.50000   0.20035   0.11279   0.0000000000
C          C       0.50000   0.81099   0.49706   0.0000000000
C          C       0.50000   0.70035   0.61279   0.0000000000
C          C       0.50000   0.31099   0.99706   0.0000000000
C          C       0.50000   0.71353   0.03215   0.0000000000
C          C       0.50000   0.26985   0.58562   0.0000000000
C          C       0.50000   0.21353   0.53215   0.0000000000
C          C       0.50000   0.76985   0.08562   0.0000000000
C          C       0.50000   0.28647   0.03215   0.0000000000
C          C       0.50000   0.73015   0.58562   0.0000000000
C          C       0.50000   0.78647   0.53215   0.0000000000
C          C       0.50000   0.23015   0.08562   0.0000000000
N          N       0.50000   0.65693   0.00050   0.0000000000
N          N       0.50000   0.32978   0.59791   0.0000000000
N          N       0.50000   0.15693   0.50050   0.0000000000
N          N       0.50000   0.82978   0.09791   0.0000000000
N          N       0.50000   0.34307   0.00050   0.0000000000
N          N       0.50000   0.67022   0.59791   0.0000000000
N          N       0.50000   0.84307   0.50050   0.0000000000
N          N       0.50000   0.17022   0.09791   0.0000000000
N          N       0.50000   0.05740   0.29092   0.0000000000
N          N       0.50000   0.55740   0.79092   0.0000000000
N          N       0.50000   0.94260   0.29092   0.0000000000
N          N       0.50000   0.44260   0.79092   0.0000000000
H          H       0.50000   0.03344   0.29088   0.0000000000
H          H       0.50000   0.53344   0.79088   0.0000000000
H          H       0.50000   0.96656   0.29088   0.0000000000
H          H       0.50000   0.46656   0.79088   0.0000000000
C          C       0.50000   0.92433   0.32536   0.0000000000
C          C       0.50000   0.07565   0.25649   0.0000000000
C          C       0.50000   0.42434   0.82536   0.0000000000
C          C       0.50000   0.57565   0.75649   0.0000000000
C          C       0.50000   0.07566   0.32536   0.0000000000
C          C       0.50000   0.92435   0.25649   0.0000000000
C          C       0.50000   0.57566   0.82536   0.0000000000
C          C       0.50000   0.42435   0.75649   0.0000000000
C          C       0.50000   0.89123   0.31251   0.0000000000
C          C       0.50000   0.10877   0.26939   0.0000000000
C          C       0.50000   0.39123   0.81251   0.0000000000
C          C       0.50000   0.60877   0.76939   0.0000000000
C          C       0.50000   0.10877   0.31251   0.0000000000
C          C       0.50000   0.89123   0.26939   0.0000000000
C          C       0.50000   0.60877   0.81251   0.0000000000
C          C       0.50000   0.39123   0.76939   0.0000000000
H          H       0.50000   0.86941   0.33208   0.0000000000
H          H       0.50000   0.13061   0.24986   0.0000000000
H          H       0.50000   0.36941   0.83208   0.0000000000
H          H       0.50000   0.63061   0.74986   0.0000000000
H          H       0.50000   0.13059   0.33208   0.0000000000
H          H       0.50000   0.86939   0.24986   0.0000000000
H          H       0.50000   0.63059   0.83208   0.0000000000
H          H       0.50000   0.36939   0.74986   0.0000000000
N          N       0.50000   0.50000   0.72246   0.0000000000
N          N       0.50000   0.50000   0.85923   0.0000000000
N          N       0.50000   0.00000   0.22246   0.0000000000
N          N       0.50000   0.00000   0.35923   0.0000000000
C          C       0.50000   0.52941   0.69836   0.0000000000
C          C       0.50000   0.47061   0.88334   0.0000000000
C          C       0.50000   0.02941   0.19836   0.0000000000
C          C       0.50000   0.97061   0.38334   0.0000000000
C          C       0.50000   0.47059   0.69836   0.0000000000
C          C       0.50000   0.52939   0.88334   0.0000000000
C          C       0.50000   0.97059   0.19836   0.0000000000
C          C       0.50000   0.02939   0.38334   0.0000000000
C          C       0.50000   0.51687   0.65579   0.0000000000
C          C       0.50000   0.48314   0.92592   0.0000000000
C          C       0.50000   0.01687   0.15578   0.0000000000
C          C       0.50000   0.98314   0.42592   0.0000000000
C          C       0.50000   0.48313   0.65579   0.0000000000
C          C       0.50000   0.51686   0.92592   0.0000000000
C          C       0.50000   0.98313   0.15578   0.0000000000
C          C       0.50000   0.01686   0.42592   0.0000000000
H          H       0.50000   0.53219   0.62844   0.0000000000
H          H       0.50000   0.46785   0.95329   0.0000000000
H          H       0.50000   0.03219   0.12844   0.0000000000
H          H       0.50000   0.96785   0.45329   0.0000000000
H          H       0.50000   0.46781   0.62844   0.0000000000
H          H       0.50000   0.53215   0.95329   0.0000000000
H          H       0.50000   0.96781   0.12844   0.0000000000
H          H       0.50000   0.03215   0.45329   0.0000000000
C          C       0.50000   0.93764   0.36981   0.0000000000
C          C       0.50000   0.06235   0.21198   0.0000000000
C          C       0.50000   0.43764   0.86981   0.0000000000
C          C       0.50000   0.56235   0.71198   0.0000000000
C          C       0.50000   0.06236   0.36981   0.0000000000
C          C       0.50000   0.93765   0.21198   0.0000000000
C          C       0.50000   0.56236   0.86981   0.0000000000
C          C       0.50000   0.43765   0.71198   0.0000000000
C          C       0.50000   0.91176   0.40197   0.0000000000
C          C       0.50000   0.08855   0.18023   0.0000000000
C          C       0.50000   0.41176   0.90197   0.0000000000
C          C       0.50000   0.58855   0.68023   0.0000000000
C          C       0.50000   0.08824   0.40197   0.0000000000
C          C       0.50000   0.91144   0.18023   0.0000000000
C          C       0.50000   0.58824   0.90197   0.0000000000
C          C       0.50000   0.41145   0.68023   0.0000000000
C          C       0.68026   0.60173   0.66595   0.0000000000
C          C       0.68027   0.39987   0.91787   0.0000000000
C          C       0.68026   0.10173   0.16595   0.0000000000
C          C       0.68027   0.89987   0.41787   0.0000000000
C          C       0.31974   0.39827   0.66595   0.0000000000
C          C       0.31973   0.60012   0.91787   0.0000000000
C          C       0.31974   0.89827   0.16595   0.0000000000
C          C       0.31973   0.10013   0.41787   0.0000000000
C          C       0.68026   0.39827   0.66595   0.0000000000
C          C       0.68027   0.60012   0.91787   0.0000000000
C          C       0.68026   0.89827   0.16595   0.0000000000
C          C       0.68027   0.10013   0.41787   0.0000000000
C          C       0.31974   0.60173   0.66595   0.0000000000
C          C       0.31973   0.39987   0.91787   0.0000000000
C          C       0.31974   0.10173   0.16595   0.0000000000
C          C       0.31973   0.89987   0.41787   0.0000000000
H          H       0.81992   0.90908   0.40586   0.0000000000
H          H       0.81989   0.09181   0.17709   0.0000000000
H          H       0.81992   0.40908   0.90586   0.0000000000
H          H       0.81989   0.59181   0.67709   0.0000000000
H          H       0.18008   0.09092   0.40586   0.0000000000
H          H       0.18011   0.90819   0.17709   0.0000000000
H          H       0.18008   0.59092   0.90586   0.0000000000
H          H       0.18011   0.40819   0.67709   0.0000000000
H          H       0.81992   0.09092   0.40586   0.0000000000
H          H       0.81989   0.90819   0.17709   0.0000000000
H          H       0.81992   0.59092   0.90586   0.0000000000
H          H       0.81989   0.40819   0.67709   0.0000000000
H          H       0.18008   0.90908   0.40586   0.0000000000
H          H       0.18011   0.09181   0.17709   0.0000000000
H          H       0.18008   0.40908   0.90586   0.0000000000
H          H       0.18011   0.59181   0.67709   0.0000000000
C          C       0.67989   0.87661   0.44992   0.0000000000
C          C       0.67994   0.12824   0.13796   0.0000000000
C          C       0.67989   0.37661   0.94992   0.0000000000
C          C       0.67994   0.62824   0.63796   0.0000000000
C          C       0.32011   0.12339   0.44992   0.0000000000
C          C       0.32006   0.87175   0.13796   0.0000000000
C          C       0.32011   0.62339   0.94992   0.0000000000
C          C       0.32006   0.37175   0.63796   0.0000000000
C          C       0.67989   0.12339   0.44992   0.0000000000
C          C       0.67994   0.87175   0.13796   0.0000000000
C          C       0.67989   0.62339   0.94992   0.0000000000
C          C       0.67994   0.37175   0.63796   0.0000000000
C          C       0.32011   0.87661   0.44992   0.0000000000
C          C       0.32006   0.12824   0.13796   0.0000000000
C          C       0.32011   0.37661   0.94992   0.0000000000
C          C       0.32006   0.62824   0.63796   0.0000000000
H          H       0.81835   0.86781   0.46281   0.0000000000
H          H       0.81849   0.13886   0.12738   0.0000000000
H          H       0.81835   0.36781   0.96281   0.0000000000
H          H       0.81849   0.63886   0.62738   0.0000000000
H          H       0.18164   0.13219   0.46281   0.0000000000
H          H       0.18151   0.86114   0.12738   0.0000000000
H          H       0.18164   0.63219   0.96281   0.0000000000
H          H       0.18151   0.36114   0.62738   0.0000000000
H          H       0.81835   0.13219   0.46281   0.0000000000
H          H       0.81849   0.86114   0.12738   0.0000000000
H          H       0.81835   0.63219   0.96281   0.0000000000
H          H       0.81849   0.36114   0.62738   0.0000000000
H          H       0.18164   0.86781   0.46281   0.0000000000
H          H       0.18151   0.13886   0.12738   0.0000000000
H          H       0.18164   0.36781   0.96281   0.0000000000
H          H       0.18151   0.63886   0.62738   0.0000000000
C          C       0.50000   0.86501   0.46598   0.0000000000
C          C       0.50000   0.14173   0.12427   0.0000000000
C          C       0.50000   0.36501   0.96598   0.0000000000
C          C       0.50000   0.64173   0.62427   0.0000000000
C          C       0.50000   0.13499   0.46598   0.0000000000
C          C       0.50000   0.85827   0.12427   0.0000000000
C          C       0.50000   0.63499   0.96598   0.0000000000
C          C       0.50000   0.35827   0.62427   0.0000000000
H          H       0.63851   0.86018   0.56315   0.0000000000
H          H       0.63589   0.80819   0.66295   0.0000000000
H          H       0.63851   0.36018   0.06315   0.0000000000
H          H       0.63589   0.30819   0.16295   0.0000000000
H          H       0.36149   0.13982   0.56315   0.0000000000
H          H       0.36410   0.19181   0.66295   0.0000000000
H          H       0.36149   0.63982   0.06315   0.0000000000
H          H       0.36410   0.69181   0.16295   0.0000000000
H          H       0.63851   0.13982   0.56315   0.0000000000
H          H       0.63589   0.19181   0.66295   0.0000000000
H          H       0.63851   0.63982   0.06315   0.0000000000
H          H       0.63589   0.69181   0.16295   0.0000000000
H          H       0.36149   0.86018   0.56315   0.0000000000
H          H       0.36410   0.80819   0.66295   0.0000000000
H          H       0.36149   0.36018   0.06315   0.0000000000
H          H       0.36410   0.30819   0.16295   0.0000000000
H          H       0.50000   0.75202   0.98480   0.0000000000
O          O       0.50000   0.67710   0.09788   0.0000000000
H          H       0.50000   0.79614   0.14584   0.0000000000
O          O       0.50000   0.23717   0.64672   0.0000000000
H          H       0.50000   0.29891   0.53010   0.0000000000
H          H       0.50000   0.19907   0.46607   0.0000000000
C          C       0.50000   0.85552   0.58086   0.0000000000
H          H       0.50000   0.87388   0.60635   0.0000000000
C          C       0.50000   0.79329   0.66956   0.0000000000
H          H       0.50000   0.78731   0.70279   0.0000000000
H          H       0.50000   0.25202   0.48480   0.0000000000
O          O       0.50000   0.17710   0.59788   0.0000000000
H          H       0.50000   0.29614   0.64584   0.0000000000
O          O       0.50000   0.73717   0.14672   0.0000000000
H          H       0.50000   0.79891   0.03010   0.0000000000
H          H       0.50000   0.69907   0.96607   0.0000000000
C          C       0.50000   0.35553   0.08086   0.0000000000
H          H       0.50000   0.37388   0.10635   0.0000000000
C          C       0.50000   0.29329   0.16956   0.0000000000
H          H       0.50000   0.28732   0.20279   0.0000000000
H          H       0.50000   0.24798   0.98480   0.0000000000
O          O       0.50000   0.32290   0.09788   0.0000000000
H          H       0.50000   0.20386   0.14584   0.0000000000
O          O       0.50000   0.76283   0.64672   0.0000000000
H          H       0.50000   0.70109   0.53010   0.0000000000
H          H       0.50000   0.80093   0.46607   0.0000000000
C          C       0.50000   0.14447   0.58086   0.0000000000
H          H       0.50000   0.12612   0.60635   0.0000000000
C          C       0.50000   0.20671   0.66956   0.0000000000
H          H       0.50000   0.21268   0.70279   0.0000000000
H          H       0.50000   0.74798   0.48480   0.0000000000
O          O       0.50000   0.82290   0.59788   0.0000000000
H          H       0.50000   0.70386   0.64584   0.0000000000
O          O       0.50000   0.26283   0.14672   0.0000000000
H          H       0.50000   0.20109   0.03010   0.0000000000
H          H       0.50000   0.30093   0.96607   0.0000000000
C          C       0.50000   0.64447   0.08086   0.0000000000
H          H       0.50000   0.62612   0.10635   0.0000000000
C          C       0.50000   0.70671   0.16956   0.0000000000
H          H       0.50000   0.71268   0.20279   0.0000000000
H          H       0.50000   0.50000   0.75203   0.0000000000
H          H       0.50000   0.50000   0.82968   0.0000000000
H          H       0.50000   0.00000   0.25203   0.0000000000
H          H       0.50000   0.00000   0.32968   0.0000000000
