data_crystal

_cell_length_a    22.78200
_cell_length_b    22.78200
_cell_length_c    6.80000
_cell_angle_alpha 90.00000
_cell_angle_beta  90.00000
_cell_angle_gamma 120.00000

_space_group_name_Hall 'P 1'
_space_group_name_H-M_alt  'P 1'

loop_
_symmetry_equiv_pos_as_xyz
'x,y,z' 

loop_
_atom_site_label
_atom_site_type_symbol
_atom_site_fract_x
_atom_site_fract_y
_atom_site_fract_z
C          C       0.57091   0.53545   0.73530 
C          C       0.53545   0.46454   0.73530 
C          C       0.46454   0.42909   0.73530 
C          C       0.42909   0.46454   0.73530 
C          C       0.46454   0.53545   0.73530 
C          C       0.53545   0.57091   0.73530 
H          H       0.56288   0.43712   0.73530 
H          H       0.37423   0.43712   0.73530 
H          H       0.56288   0.62577   0.73530 
C          C       0.09576   0.79788   0.73530 
C          C       0.13121   0.76242   0.73530 
C          C       0.20212   0.79788   0.73530 
C          C       0.23758   0.86879   0.73530 
C          C       0.20212   0.90424   0.73530 
C          C       0.13121   0.86879   0.73530 
H          H       0.10378   0.70756   0.73530 
H          H       0.29243   0.89622   0.73530 
H          H       0.10378   0.89622   0.73530 
C          C       0.01567   0.75783   0.73530 
C          C       0.97950   0.68658   0.73530 
C          C       0.90852   0.75743   0.73530 
H          H       0.00630   0.65840   0.73530 
C          C       0.97950   0.79292   0.73530 
C          C       0.90852   0.65109   0.73530 
H          H       0.00630   0.84790   0.73530 
C          C       0.87236   0.68618   0.73530 
C          C       0.79431   0.64715   0.73530 
C          C       0.75814   0.57590   0.73530 
C          C       0.68717   0.64676   0.73530 
H          H       0.78494   0.54772   0.73530 
C          C       0.75814   0.68224   0.73530 
C          C       0.68717   0.54041   0.73530 
H          H       0.78494   0.73722   0.73530 
C          C       0.65100   0.57550   0.73530 
H          H       0.66037   0.48543   0.73530 
H          H       0.88172   0.59611   0.73530 
H          H       0.66037   0.67493   0.73530 
H          H       0.88172   0.78561   0.73530 
C          C       0.24217   0.75783   0.73530 
C          C       0.20708   0.68658   0.73530 
C          C       0.34891   0.75743   0.73530 
H          H       0.15210   0.65840   0.73530 
C          C       0.31342   0.79292   0.73530 
C          C       0.24256   0.65109   0.73530 
H          H       0.34160   0.84790   0.73530 
C          C       0.31382   0.68618   0.73530 
C          C       0.35284   0.64715   0.73530 
C          C       0.31775   0.57590   0.73530 
C          C       0.45959   0.64676   0.73530 
H          H       0.26278   0.54772   0.73530 
C          C       0.42410   0.68224   0.73530 
C          C       0.35324   0.54041   0.73530 
H          H       0.45228   0.73722   0.73530 
C          C       0.42450   0.57550   0.73530 
H          H       0.32506   0.48543   0.73530 
H          H       0.21439   0.59611   0.73530 
H          H       0.51457   0.67493   0.73530 
H          H       0.40389   0.78561   0.73530 
C          C       0.24217   0.98433   0.73529 
C          C       0.31342   0.02050   0.73529 
C          C       0.24256   0.09148   0.73530 
H          H       0.34160   0.99370   0.73529 
C          C       0.20708   0.02050   0.73529 
C          C       0.34891   0.09148   0.73530 
H          H       0.15210   0.99370   0.73529 
C          C       0.31382   0.12764   0.73530 
C          C       0.35284   0.20569   0.73530 
C          C       0.42410   0.24186   0.73530 
C          C       0.35324   0.31283   0.73530 
H          H       0.45228   0.21506   0.73530 
C          C       0.31775   0.24186   0.73530 
C          C       0.45959   0.31283   0.73530 
H          H       0.26278   0.21506   0.73530 
C          C       0.42450   0.34900   0.73530 
H          H       0.51457   0.33963   0.73530 
H          H       0.40389   0.11827   0.73530 
H          H       0.32506   0.33963   0.73530 
H          H       0.21439   0.11827   0.73530 
C          C       0.57091   0.53545   1.23530 
C          C       0.53545   0.46454   1.23530 
C          C       0.46454   0.42909   1.23530 
C          C       0.42909   0.46454   1.23530 
C          C       0.46454   0.53545   1.23530 
C          C       0.53545   0.57091   1.23530 
H          H       0.56288   0.43712   1.23530 
H          H       0.37423   0.43712   1.23530 
H          H       0.56288   0.62577   1.23530 
C          C       0.09576   0.79788   1.23530 
C          C       0.13121   0.76242   1.23530 
C          C       0.20212   0.79788   1.23530 
C          C       0.23758   0.86879   1.23530 
C          C       0.20212   0.90424   1.23530 
C          C       0.13121   0.86879   1.23530 
H          H       0.10378   0.70756   1.23530 
H          H       0.29243   0.89622   1.23530 
H          H       0.10378   0.89622   1.23530 
C          C       0.01567   0.75783   1.23530 
C          C       0.97950   0.68658   1.23530 
C          C       0.90852   0.75743   1.23530 
H          H       0.00630   0.65840   1.23530 
C          C       0.97950   0.79292   1.23530 
C          C       0.90852   0.65109   1.23530 
H          H       0.00630   0.84790   1.23530 
C          C       0.87236   0.68618   1.23530 
C          C       0.79431   0.64715   1.23530 
C          C       0.75814   0.57590   1.23530 
C          C       0.68717   0.64676   1.23530 
H          H       0.78494   0.54772   1.23530 
C          C       0.75814   0.68224   1.23530 
C          C       0.68717   0.54041   1.23530 
H          H       0.78494   0.73722   1.23530 
C          C       0.65100   0.57550   1.23530 
H          H       0.66037   0.48543   1.23530 
H          H       0.88172   0.59611   1.23530 
H          H       0.66037   0.67493   1.23530 
H          H       0.88172   0.78561   1.23530 
C          C       0.24217   0.75783   1.23530 
C          C       0.20708   0.68658   1.23530 
C          C       0.34891   0.75743   1.23530 
H          H       0.15210   0.65840   1.23530 
C          C       0.31342   0.79292   1.23530 
C          C       0.24256   0.65109   1.23530 
H          H       0.34160   0.84790   1.23530 
C          C       0.31382   0.68618   1.23530 
C          C       0.35284   0.64715   1.23530 
C          C       0.31775   0.57590   1.23530 
C          C       0.45959   0.64676   1.23530 
H          H       0.26278   0.54772   1.23530 
C          C       0.42410   0.68224   1.23530 
C          C       0.35324   0.54041   1.23530 
H          H       0.45228   0.73722   1.23530 
C          C       0.42450   0.57550   1.23530 
H          H       0.32506   0.48543   1.23530 
H          H       0.21439   0.59611   1.23530 
H          H       0.51457   0.67493   1.23530 
H          H       0.40389   0.78561   1.23530 
C          C       0.24217   0.98433   1.23529 
C          C       0.31342   0.02050   1.23529 
C          C       0.24256   0.09148   1.23530 
H          H       0.34160   0.99370   1.23529 
C          C       0.20708   0.02050   1.23529 
C          C       0.34891   0.09148   1.23530 
H          H       0.15210   0.99370   1.23529 
C          C       0.31382   0.12764   1.23530 
C          C       0.35284   0.20569   1.23530 
C          C       0.42410   0.24186   1.23530 
C          C       0.35324   0.31283   1.23530 
H          H       0.45228   0.21506   1.23530 
C          C       0.31775   0.24186   1.23530 
C          C       0.45959   0.31283   1.23530 
H          H       0.26278   0.21506   1.23530 
C          C       0.42450   0.34900   1.23530 
H          H       0.51457   0.33963   1.23530 
H          H       0.40389   0.11827   1.23530 
H          H       0.32506   0.33963   1.23530 
H          H       0.21439   0.11827   1.23530 
