data_crystal
 
_cell_length_a    37.33110
_cell_length_b    37.30870
_cell_length_c    3.52000
_cell_angle_alpha 90.03900
_cell_angle_beta  89.99050
_cell_angle_gamma 119.96040
 
_symmetry_space_group_name_Hall 'P 1'
_symmetry_space_group_name_H-M  'P 1'
 
loop_
_symmetry_equiv_pos_as_xyz
 'x,y,z' 
 
loop_
_atom_site_label
_atom_site_type_symbol
_atom_site_fract_x
_atom_site_fract_y
_atom_site_fract_z
_atom_site_charge
C          C       0.47744   0.51241   0.02725   0.0000000000
C          C       0.46504   0.46986   0.00445   0.0000000000
C          C       0.49323   0.45685   0.09591   0.0000000000
C          C       0.53371   0.48492   0.21712   0.0000000000
C          C       0.54622   0.52756   0.23507   0.0000000000
C          C       0.51781   0.54046   0.14932   0.0000000000
O          O       0.58547   0.55804   0.36172   0.0000000000
C          C       0.62011   0.56421   0.13854   0.0000000000
O          O       0.42622   0.43966  -0.13364   0.0000000000
C          C       0.39072   0.43334   0.07576   0.0000000000
C          C       0.56203   0.46934   0.32313   0.0000000000
C          C       0.44940   0.52804  -0.08419   0.0000000000
N          N       0.45735   0.56488   0.01350   0.0000000000
N          N       0.55004   0.43011   0.30154   0.0000000000
C          C       0.43229   0.58348  -0.06139   0.0000000000
C          C       0.57608   0.41248   0.36227   0.0000000000
C          C       0.55799   0.37122   0.47814   0.0000000000
C          C       0.58166   0.35183   0.50790   0.0000000000
C          C       0.62387   0.37300   0.40908   0.0000000000
C          C       0.64194   0.41464   0.29372   0.0000000000
C          C       0.61842   0.43423   0.27316   0.0000000000
C          C       0.44835   0.62508   0.03430   0.0000000000
C          C       0.42504   0.64463  -0.01793   0.0000000000
C          C       0.38492   0.62301  -0.17336   0.0000000000
C          C       0.36892   0.58107  -0.27047   0.0000000000
C          C       0.39199   0.56135  -0.21117   0.0000000000
C          C       0.64817   0.35105   0.40062   0.0000000000
C          C       0.36015   0.64400  -0.24186   0.0000000000
C          C       0.69063   0.37235   0.46396   0.0000000000
C          C       0.31338   0.68214  -0.40933   0.0000000000
C          C       0.48427   0.95610  -0.23319   0.0000000000
C          C       0.52633   0.98739  -0.25667   0.0000000000
C          C       0.53815   0.02852  -0.17141   0.0000000000
C          C       0.50986   0.04048  -0.04678   0.0000000000
C          C       0.46775   0.01015  -0.01896   0.0000000000
C          C       0.45519   0.96695  -0.11000   0.0000000000
O          O       0.43712   0.01812   0.11851   0.0000000000
C          C       0.43070   0.04742  -0.08804   0.0000000000
O          O       0.55756   0.97995  -0.38758   0.0000000000
C          C       0.56516   0.95206  -0.17064   0.0000000000
C          C       0.52513   0.08418   0.05986   0.0000000000
C          C       0.47026   0.91260  -0.33997   0.0000000000
N          N       0.43247   0.88369  -0.26889   0.0000000000
N          N       0.56130   0.11272  -0.05296   0.0000000000
C          C       0.41440   0.83995  -0.33026   0.0000000000
C          C       0.58127   0.15643   0.01775   0.0000000000
C          C       0.62138   0.18082  -0.11875   0.0000000000
C          C       0.64253   0.22359  -0.06585   0.0000000000
C          C       0.62623   0.24315   0.15382   0.0000000000
C          C       0.58470   0.21854   0.27724   0.0000000000
C          C       0.56219   0.17590   0.20324   0.0000000000
C          C       0.37317   0.81476  -0.22466   0.0000000000
C          C       0.35443   0.77184  -0.24510   0.0000000000
C          C       0.37632   0.75273  -0.38068   0.0000000000
C          C       0.41757   0.77818  -0.49847   0.0000000000
C          C       0.43660   0.82135  -0.47055   0.0000000000
C          C       0.65158   0.28838   0.25847   0.0000000000
C          C       0.35645   0.70667  -0.37374   0.0000000000
C          C       0.62945   0.30967   0.29210   0.0000000000
C          C       0.31661   0.62103  -0.24084   0.0000000000
C          C       0.04543   0.53208  -0.16977   0.0000000000
C          C       0.01745   0.54720  -0.16211   0.0000000000
C          C       0.97358   0.51882  -0.06827   0.0000000000
C          C       0.95903   0.47726   0.02369   0.0000000000
C          C       0.98683   0.46195   0.00740   0.0000000000
C          C       0.03065   0.49039  -0.08197   0.0000000000
O          O       0.97640   0.42178   0.11964   0.0000000000
C          C       0.94647   0.38829  -0.10550   0.0000000000
O          O       0.02795   0.58725  -0.27805   0.0000000000
C          C       0.05816   0.62094  -0.05661   0.0000000000
C          C       0.91527   0.45044   0.13716   0.0000000000
C          C       0.08984   0.55901  -0.26252   0.0000000000
N          N       0.11553   0.54515  -0.23564   0.0000000000
N          N       0.88971   0.46445   0.16655   0.0000000000
C          C       0.15955   0.56981  -0.27949   0.0000000000
C          C       0.84659   0.43905   0.26032   0.0000000000
C          C       0.81831   0.45099   0.13970   0.0000000000
C          C       0.77565   0.42370   0.17708   0.0000000000
C          C       0.76059   0.38448   0.34783   0.0000000000
C          C       0.78926   0.37600   0.51004   0.0000000000
C          C       0.83157   0.40150   0.45612   0.0000000000
C          C       0.18186   0.55065  -0.39171   0.0000000000
C          C       0.22503   0.57325  -0.41566   0.0000000000
C          C       0.24685   0.61549  -0.31764   0.0000000000
C          C       0.22419   0.63444  -0.19952   0.0000000000
C          C       0.18108   0.61195  -0.18221   0.0000000000
C          C       0.71531   0.35452   0.38673   0.0000000000
C          C       0.29292   0.63967  -0.32856   0.0000000000
C          C       0.69598   0.31065   0.31198   0.0000000000
C          C       0.37966   0.68706  -0.30367   0.0000000000
O          O       0.71930   2.29278   0.16834   0.0000000000
C          C       0.72540   2.23082   0.36686   0.0000000000
C          C       0.74308   2.27796   0.37939   0.0000000000
C          C       0.78831   2.29612   0.25496   0.0000000000
C          C       0.79359   2.25972   0.12992   0.0000000000
N          N       0.75675   2.22098   0.23633   0.0000000000
C          C       0.83367   1.26152   0.24377   0.0000000000
O          O       0.83863   1.22740   0.16949   0.0000000000
O          O       0.86192   1.29267   0.38796   0.0000000000
H          H       0.48301   0.42419   0.07184   0.0000000000
H          H       0.52796   0.57312   0.17079   0.0000000000
H          H       0.63250   0.59380  -0.01892   0.0000000000
H          H       0.61231   0.53865  -0.06523   0.0000000000
H          H       0.64481   0.56638   0.32796   0.0000000000
H          H       0.37685   0.40291   0.22025   0.0000000000
H          H       0.36744   0.43302  -0.12164   0.0000000000
H          H       0.39792   0.45768   0.28958   0.0000000000
H          H       0.59300   0.49074   0.41846   0.0000000000
H          H       0.42208   0.50811  -0.24545   0.0000000000
H          H       0.52535   0.35399   0.54562   0.0000000000
H          H       0.56677   0.32009   0.60527   0.0000000000
H          H       0.67380   0.43167   0.20027   0.0000000000
H          H       0.63290   0.46561   0.16791   0.0000000000
H          H       0.47895   0.64230   0.15718   0.0000000000
H          H       0.43839   0.67638   0.07413   0.0000000000
H          H       0.33881   0.56335  -0.40111   0.0000000000
H          H       0.37790   0.52904  -0.28619   0.0000000000
H          H       0.70523   0.40441   0.55118   0.0000000000
H          H       0.29555   0.69638  -0.49504   0.0000000000
H          H       0.57059   0.05142  -0.19580   0.0000000000
H          H       0.42278   0.94401  -0.08612   0.0000000000
H          H       0.45471   0.06434  -0.30584   0.0000000000
H          H       0.43102   0.07066   0.11001   0.0000000000
H          H       0.39982   0.03106  -0.22502   0.0000000000
H          H       0.59506   0.96985  -0.01893   0.0000000000
H          H       0.56768   0.93004  -0.36537   0.0000000000
H          H       0.54024   0.93366   0.03615   0.0000000000
H          H       0.50602   0.09199   0.22852   0.0000000000
H          H       0.49201   0.90511  -0.46652   0.0000000000
H          H       0.63586   0.16674  -0.28006   0.0000000000
H          H       0.67125   0.24135  -0.20962   0.0000000000
H          H       0.56981   0.23144   0.44824   0.0000000000
H          H       0.53076   0.15863   0.30543   0.0000000000
H          H       0.35582   0.82858  -0.11343   0.0000000000
H          H       0.32318   0.75375  -0.13929   0.0000000000
H          H       0.43532   0.76494  -0.61170   0.0000000000
H          H       0.46851   0.83960  -0.55694   0.0000000000
H          H       0.59724   0.29436   0.21022   0.0000000000
H          H       0.30101   0.58882  -0.15850   0.0000000000
H          H       0.95281   0.53120  -0.06675   0.0000000000
H          H       0.05128   0.47786  -0.08179   0.0000000000
H          H       0.96163   0.37290  -0.25024   0.0000000000
H          H       0.93135   0.39822  -0.31873   0.0000000000
H          H       0.92192   0.36517   0.08159   0.0000000000
H          H       0.08193   0.64439  -0.24736   0.0000000000
H          H       0.07399   0.61127   0.15132   0.0000000000
H          H       0.04295   0.63584   0.09530   0.0000000000
H          H       0.90402   0.41812   0.18153   0.0000000000
H          H       0.10113   0.59061  -0.34834   0.0000000000
H          H       0.82918   0.48022  -0.00511   0.0000000000
H          H       0.75461   0.43285   0.06149   0.0000000000
H          H       0.77837   0.35094   0.69943   0.0000000000
H          H       0.85227   0.39262   0.58474   0.0000000000
H          H       0.16567   0.51810  -0.46357   0.0000000000
H          H       0.24116   0.55764  -0.51396   0.0000000000
H          H       0.23972   0.66642  -0.10768   0.0000000000
H          H       0.16477   0.62709  -0.07677   0.0000000000
H          H       0.41290   0.70551  -0.29112   0.0000000000
H          H       0.69740   2.21396   0.20057   0.0000000000
H          H       0.71485   2.21700   0.64480   0.0000000000
H          H       0.74440   2.28600   0.66183   0.0000000000
H          H       0.81035   2.31345   0.48221   0.0000000000
H          H       0.79805   2.32000   0.04146   0.0000000000
H          H       0.79418   2.25966  -0.17088   0.0000000000
H          H       0.76318   2.20557   0.45069   0.0000000000
H          H       0.86668   1.23204   0.25155   0.0000000000
