data_DMTA-TPB1-3
_audit_creation_date              0000-00-00
_audit_creation_method            'LanYouShi'
_symmetry_space_group_name_H-M    'P1'
_cell_length_a                    37.3311005
_cell_length_b                    37.3087006
_cell_length_c                    3.5200000
_cell_angle_alpha                 90.0390015
_cell_angle_beta                  89.9905014
_cell_angle_gamma                 119.9604034
loop_
_atom_site_label
_atom_site_type_symbol
_atom_site_fract_x
_atom_site_fract_y
_atom_site_fract_z
_atom_site_U_iso_or_equiv
_atom_site_adp_type
_atom_site_occupancy
       C11          C  0.4774401  0.5124100  0.0272500    0.00000       Uiso       1.00
       C22          C  0.4650400  0.4698600  0.0044500    0.00000       Uiso       1.00
       C33          C  0.4932300  0.4568500  0.0959100    0.00000       Uiso       1.00
       C44          C  0.5337100  0.4849200  0.2171200    0.00000       Uiso       1.00
       C55          C  0.5462201  0.5275601  0.2350700    0.00000       Uiso       1.00
       C66          C  0.5178100  0.5404601  0.1493200    0.00000       Uiso       1.00
       O77          O  0.5854700  0.5580400  0.3617200    0.00000       Uiso       1.00
       C88          C  0.6201100  0.5642100  0.1385400    0.00000       Uiso       1.00
       O99          O  0.4262200  0.4396600 -0.1336400    0.00000       Uiso       1.00
     C1010          C  0.3907200  0.4333400  0.0757600    0.00000       Uiso       1.00
     C1111          C  0.5620300  0.4693400  0.3231300    0.00000       Uiso       1.00
     C1212          C  0.4494000  0.5280401 -0.0841900    0.00000       Uiso       1.00
     N1313          N  0.4573500  0.5648800  0.0135000    0.00000       Uiso       1.00
     N1414          N  0.5500400  0.4301100  0.3015400    0.00000       Uiso       1.00
     C1515          C  0.4322900  0.5834800 -0.0613900    0.00000       Uiso       1.00
     C1616          C  0.5760800  0.4124800  0.3622700    0.00000       Uiso       1.00
     C1717          C  0.5579900  0.3712200  0.4781400    0.00000       Uiso       1.00
     C1818          C  0.5816600  0.3518300  0.5079000    0.00000       Uiso       1.00
     C1919          C  0.6238700  0.3730000  0.4090800    0.00000       Uiso       1.00
     C2020          C  0.6419401  0.4146400  0.2937200    0.00000       Uiso       1.00
     C2121          C  0.6184201  0.4342300  0.2731600    0.00000       Uiso       1.00
     C2222          C  0.4483500  0.6250800  0.0343000    0.00000       Uiso       1.00
     C2323          C  0.4250400  0.6446300 -0.0179300    0.00000       Uiso       1.00
     C2424          C  0.3849200  0.6230100 -0.1733600    0.00000       Uiso       1.00
     C2525          C  0.3689201  0.5810700 -0.2704700    0.00000       Uiso       1.00
     C2626          C  0.3919900  0.5613500 -0.2111700    0.00000       Uiso       1.00
     C2727          C  0.6481701  0.3510500  0.4006200    0.00000       Uiso       1.00
     C2828          C  0.3601500  0.6440001 -0.2418600    0.00000       Uiso       1.00
     C2929          C  0.6906300  0.3723500  0.4639600    0.00000       Uiso       1.00
     C3030          C  0.3133800  0.6821400 -0.4093300    0.00000       Uiso       1.00
     C3131          C  0.4842701  0.9561000 -0.2331900    0.00000       Uiso       1.00
     C3232          C  0.5263301  0.9873900 -0.2566700    0.00000       Uiso       1.00
     C3333          C  0.5381500  0.0285200 -0.1714100    0.00000       Uiso       1.00
     C3434          C  0.5098600  0.0404800 -0.0467800    0.00000       Uiso       1.00
     C3535          C  0.4677500  0.0101500 -0.0189600    0.00000       Uiso       1.00
     C3636          C  0.4551901  0.9669500 -0.1100000    0.00000       Uiso       1.00
     O3737          O  0.4371200  0.0181200  0.1185100    0.00000       Uiso       1.00
     C3838          C  0.4307000  0.0474200 -0.0880400    0.00000       Uiso       1.00
     O3939          O  0.5575601  0.9799500 -0.3875800    0.00000       Uiso       1.00
     C4040          C  0.5651601  0.9520600 -0.1706400    0.00000       Uiso       1.00
     C4141          C  0.5251300  0.0841800  0.0598600    0.00000       Uiso       1.00
     C4242          C  0.4702601  0.9126000 -0.3399700    0.00000       Uiso       1.00
     N4343          N  0.4324701  0.8836900 -0.2688900    0.00000       Uiso       1.00
     N4444          N  0.5613000  0.1127200 -0.0529600    0.00000       Uiso       1.00
     C4545          C  0.4144000  0.8399500 -0.3302600    0.00000       Uiso       1.00
     C4646          C  0.5812700  0.1564300  0.0177500    0.00000       Uiso       1.00
     C4747          C  0.6213800  0.1808200 -0.1187500    0.00000       Uiso       1.00
     C4848          C  0.6425300  0.2235900 -0.0658500    0.00000       Uiso       1.00
     C4949          C  0.6262300  0.2431500  0.1538200    0.00000       Uiso       1.00
     C5050          C  0.5847000  0.2185400  0.2772400    0.00000       Uiso       1.00
     C5151          C  0.5621900  0.1759000  0.2032400    0.00000       Uiso       1.00
     C5252          C  0.3731700  0.8147600 -0.2246600    0.00000       Uiso       1.00
     C5353          C  0.3544300  0.7718400 -0.2451000    0.00000       Uiso       1.00
     C5454          C  0.3763201  0.7527300 -0.3806800    0.00000       Uiso       1.00
     C5555          C  0.4175701  0.7781800 -0.4984700    0.00000       Uiso       1.00
     C5656          C  0.4366000  0.8213500 -0.4705500    0.00000       Uiso       1.00
     C5757          C  0.6515800  0.2883800  0.2584700    0.00000       Uiso       1.00
     C5858          C  0.3564501  0.7066700 -0.3737400    0.00000       Uiso       1.00
     C5959          C  0.6294500  0.3096700  0.2921000    0.00000       Uiso       1.00
     C6060          C  0.3166100  0.6210300 -0.2408400    0.00000       Uiso       1.00
     C6161          C  0.0454300  0.5320800 -0.1697700    0.00000       Uiso       1.00
     C6262          C  0.0174500  0.5472000 -0.1621100    0.00000       Uiso       1.00
     C6363          C  0.9735800  0.5188200 -0.0682700    0.00000       Uiso       1.00
     C6464          C  0.9590300  0.4772600  0.0236900    0.00000       Uiso       1.00
     C6565          C  0.9868301  0.4619500  0.0074000    0.00000       Uiso       1.00
     C6666          C  0.0306500  0.4903900 -0.0819700    0.00000       Uiso       1.00
     O6767          O  0.9764000  0.4217800  0.1196400    0.00000       Uiso       1.00
     C6868          C  0.9464700  0.3882900 -0.1055000    0.00000       Uiso       1.00
     O6969          O  0.0279500  0.5872501 -0.2780500    0.00000       Uiso       1.00
     C7070          C  0.0581600  0.6209400 -0.0566100    0.00000       Uiso       1.00
     C7171          C  0.9152700  0.4504400  0.1371600    0.00000       Uiso       1.00
     C7272          C  0.0898400  0.5590100 -0.2625200    0.00000       Uiso       1.00
     N7373          N  0.1155300  0.5451500 -0.2356400    0.00000       Uiso       1.00
     N7474          N  0.8897100  0.4644500  0.1665500    0.00000       Uiso       1.00
     C7575          C  0.1595500  0.5698100 -0.2794900    0.00000       Uiso       1.00
     C7676          C  0.8465900  0.4390500  0.2603200    0.00000       Uiso       1.00
     C7777          C  0.8183100  0.4509900  0.1397000    0.00000       Uiso       1.00
     C7878          C  0.7756500  0.4237000  0.1770800    0.00000       Uiso       1.00
     C7979          C  0.7605900  0.3844800  0.3478300    0.00000       Uiso       1.00
     C8080          C  0.7892600  0.3760000  0.5100400    0.00000       Uiso       1.00
     C8181          C  0.8315700  0.4015000  0.4561200    0.00000       Uiso       1.00
     C8282          C  0.1818600  0.5506500 -0.3917100    0.00000       Uiso       1.00
     C8383          C  0.2250300  0.5732500 -0.4156600    0.00000       Uiso       1.00
     C8484          C  0.2468500  0.6154900 -0.3176400    0.00000       Uiso       1.00
     C8585          C  0.2241900  0.6344400 -0.1995200    0.00000       Uiso       1.00
     C8686          C  0.1810801  0.6119500 -0.1822100    0.00000       Uiso       1.00
     C8787          C  0.7153100  0.3545200  0.3867300    0.00000       Uiso       1.00
     C8888          C  0.2929200  0.6396700 -0.3285600    0.00000       Uiso       1.00
     C8989          C  0.6959800  0.3106500  0.3119800    0.00000       Uiso       1.00
     C9090          C  0.3796600  0.6870600 -0.3036700    0.00000       Uiso       1.00
     O9191          O  0.7193002  2.2927802  0.1683400    0.00000       Uiso       1.00
     C9292          C  0.7254001  2.2308202  0.3668600    0.00000       Uiso       1.00
     C9393          C  0.7430801  2.2779601  0.3793900    0.00000       Uiso       1.00
     C9494          C  0.7883102  2.2961202  0.2549600    0.00000       Uiso       1.00
     C9595          C  0.7935901  2.2597201  0.1299200    0.00000       Uiso       1.00
     N9696          N  0.7567502  2.2209802  0.2363300    0.00000       Uiso       1.00
     C9797          C  0.8336701  1.2615200  0.2437700    0.00000       Uiso       1.00
     O9898          O  0.8386300  1.2273999  0.1694900    0.00000       Uiso       1.00
     O1009          O  0.8619201  1.2926700  0.3879600    0.00000       Uiso       1.00
     H1011          H  0.4830101  0.4241900  0.0718400    0.00000       Uiso       1.00
     H1021          H  0.5279600  0.5731200  0.1707900    0.00000       Uiso       1.00
     H1031          H  0.6325001  0.5938000 -0.0189200    0.00000       Uiso       1.00
     H1041          H  0.6123100  0.5386500 -0.0652300    0.00000       Uiso       1.00
     H1051          H  0.6448100  0.5663800  0.3279600    0.00000       Uiso       1.00
     H1061          H  0.3768500  0.4029100  0.2202500    0.00000       Uiso       1.00
     H1071          H  0.3674400  0.4330200 -0.1216400    0.00000       Uiso       1.00
     H1081          H  0.3979200  0.4576800  0.2895800    0.00000       Uiso       1.00
     H1091          H  0.5930001  0.4907400  0.4184600    0.00000       Uiso       1.00
     H1101          H  0.4220800  0.5081100 -0.2454500    0.00000       Uiso       1.00
     H1111          H  0.5253500  0.3539900  0.5456200    0.00000       Uiso       1.00
     H1121          H  0.5667700  0.3200900  0.6052700    0.00000       Uiso       1.00
     H1131          H  0.6738001  0.4316700  0.2002700    0.00000       Uiso       1.00
     H1141          H  0.6329001  0.4656100  0.1679100    0.00000       Uiso       1.00
     H1151          H  0.4789500  0.6423000  0.1571800    0.00000       Uiso       1.00
     H1161          H  0.4383900  0.6763800  0.0741300    0.00000       Uiso       1.00
     H1171          H  0.3388100  0.5633500 -0.4011100    0.00000       Uiso       1.00
     H1181          H  0.3779001  0.5290400 -0.2861900    0.00000       Uiso       1.00
     H1191          H  0.7052300  0.4044100  0.5511800    0.00000       Uiso       1.00
     H1201          H  0.2955500  0.6963800 -0.4950400    0.00000       Uiso       1.00
     H1211          H  0.5705900  0.0514200 -0.1958000    0.00000       Uiso       1.00
     H1221          H  0.4227801  0.9440100 -0.0861200    0.00000       Uiso       1.00
     H1231          H  0.4547100  0.0643400 -0.3058400    0.00000       Uiso       1.00
     H1241          H  0.4310200  0.0706600  0.1100100    0.00000       Uiso       1.00
     H1251          H  0.3998200  0.0310600 -0.2250200    0.00000       Uiso       1.00
     H1261          H  0.5950601  0.9698500 -0.0189300    0.00000       Uiso       1.00
     H1271          H  0.5676801  0.9300400 -0.3653700    0.00000       Uiso       1.00
     H1281          H  0.5402400  0.9336600  0.0361500    0.00000       Uiso       1.00
     H1291          H  0.5060200  0.0919900  0.2285200    0.00000       Uiso       1.00
     H1301          H  0.4920101  0.9051100 -0.4665200    0.00000       Uiso       1.00
     H1311          H  0.6358600  0.1667400 -0.2800600    0.00000       Uiso       1.00
     H1321          H  0.6712500  0.2413500 -0.2096200    0.00000       Uiso       1.00
     H1331          H  0.5698100  0.2314400  0.4482400    0.00000       Uiso       1.00
     H1341          H  0.5307600  0.1586300  0.3054300    0.00000       Uiso       1.00
     H1351          H  0.3558201  0.8285800 -0.1134300    0.00000       Uiso       1.00
     H1361          H  0.3231800  0.7537500 -0.1392900    0.00000       Uiso       1.00
     H1371          H  0.4353200  0.7649400 -0.6117000    0.00000       Uiso       1.00
     H1381          H  0.4685101  0.8396000 -0.5569400    0.00000       Uiso       1.00
     H1391          H  0.5972400  0.2943600  0.2102200    0.00000       Uiso       1.00
     H1401          H  0.3010100  0.5888200 -0.1585000    0.00000       Uiso       1.00
     H1411          H  0.9528100  0.5312001 -0.0667500    0.00000       Uiso       1.00
     H1421          H  0.0512800  0.4778600 -0.0817900    0.00000       Uiso       1.00
     H1431          H  0.9616300  0.3729000 -0.2502400    0.00000       Uiso       1.00
     H1441          H  0.9313501  0.3982200 -0.3187300    0.00000       Uiso       1.00
     H1451          H  0.9219200  0.3651700  0.0815900    0.00000       Uiso       1.00
     H1461          H  0.0819300  0.6443900 -0.2473600    0.00000       Uiso       1.00
     H1471          H  0.0739900  0.6112700  0.1513200    0.00000       Uiso       1.00
     H1481          H  0.0429501  0.6358400  0.0953000    0.00000       Uiso       1.00
     H1491          H  0.9040200  0.4181200  0.1815300    0.00000       Uiso       1.00
     H1501          H  0.1011300  0.5906100 -0.3483400    0.00000       Uiso       1.00
     H1511          H  0.8291800  0.4802200 -0.0051100    0.00000       Uiso       1.00
     H1521          H  0.7546101  0.4328500  0.0614900    0.00000       Uiso       1.00
     H1531          H  0.7783700  0.3509400  0.6994300    0.00000       Uiso       1.00
     H1541          H  0.8522700  0.3926200  0.5847400    0.00000       Uiso       1.00
     H1551          H  0.1656700  0.5181000 -0.4635700    0.00000       Uiso       1.00
     H1561          H  0.2411600  0.5576400 -0.5139600    0.00000       Uiso       1.00
     H1571          H  0.2397200  0.6664200 -0.1076800    0.00000       Uiso       1.00
     H1581          H  0.1647701  0.6270900 -0.0767700    0.00000       Uiso       1.00
     H1591          H  0.4129000  0.7055100 -0.2911200    0.00000       Uiso       1.00
     H1601          H  0.6974002  2.2139602  0.2005700    0.00000       Uiso       1.00
     H1611          H  0.7148502  2.2170000  0.6448000    0.00000       Uiso       1.00
     H1621          H  0.7444001  2.2860000  0.6618300    0.00000       Uiso       1.00
     H1631          H  0.8103502  2.3134501  0.4822100    0.00000       Uiso       1.00
     H1641          H  0.7980501  2.3199999  0.0414600    0.00000       Uiso       1.00
     H1651          H  0.7941801  2.2596600 -0.1708800    0.00000       Uiso       1.00
     H1661          H  0.7631801  2.2055700  0.4506900    0.00000       Uiso       1.00
      H166          H  0.8666801  1.2320399  0.2515500    0.00000       Uiso       1.00
