data_crystal
 
_cell_length_a    37.50120
_cell_length_b    37.49980
_cell_length_c    3.54000
_cell_angle_alpha 90.00560
_cell_angle_beta  90.05530
_cell_angle_gamma 120.01000
 
_symmetry_space_group_name_Hall 'P 1'
_symmetry_space_group_name_H-M  'P 1'
 
loop_
_symmetry_equiv_pos_as_xyz
 'x,y,z' 
 
loop_
_atom_site_label
_atom_site_type_symbol
_atom_site_fract_x
_atom_site_fract_y
_atom_site_fract_z
_atom_site_charge
C          C       0.47557   0.51299   0.25155   0.0000000000
C          C       0.46239   0.47032   0.23043   0.0000000000
C          C       0.49065   0.45681   0.29589   0.0000000000
C          C       0.53167   0.48412   0.40191   0.0000000000
C          C       0.54463   0.52665   0.43043   0.0000000000
C          C       0.51657   0.54030   0.35952   0.0000000000
O          O       0.58416   0.55645   0.55093   0.0000000000
C          C       0.61812   0.56170   0.32691   0.0000000000
O          O       0.42256   0.44021   0.11823   0.0000000000
C          C       0.38879   0.43622   0.33836   0.0000000000
C          C       0.55996   0.46782   0.48511   0.0000000000
C          C       0.44765   0.52942   0.15530   0.0000000000
N          N       0.45967   0.56844   0.18492   0.0000000000
N          N       0.55073   0.43092   0.38033   0.0000000000
C          C       0.43394   0.58634   0.12021   0.0000000000
C          C       0.57542   0.41137   0.41828   0.0000000000
C          C       0.55854   0.37073   0.29253   0.0000000000
C          C       0.58177   0.35092   0.29163   0.0000000000
C          C       0.62274   0.37089   0.42607   0.0000000000
C          C       0.63927   0.41150   0.56445   0.0000000000
C          C       0.61618   0.43169   0.55643   0.0000000000
C          C       0.45197   0.62696  -0.00877   0.0000000000
C          C       0.42819   0.64578  -0.06620   0.0000000000
C          C       0.38572   0.62496   0.01827   0.0000000000
C          C       0.36797   0.58432   0.15819   0.0000000000
C          C       0.39163   0.56514   0.20511   0.0000000000
C          C       0.64839   0.35025   0.39559   0.0000000000
C          C       0.36027   0.64527  -0.04876   0.0000000000
C          C       0.69103   0.37323   0.34654   0.0000000000
C          C       0.31405   0.68355  -0.22488   0.0000000000
C          C       0.47746   0.95690  -0.16546   0.0000000000
C          C       0.51775   0.98836  -0.28144   0.0000000000
C          C       0.52804   0.02989  -0.26296   0.0000000000
C          C       0.50072   0.04249  -0.13521   0.0000000000
C          C       0.46078   0.01269  -0.03294   0.0000000000
C          C       0.44903   0.96887  -0.05100   0.0000000000
O          O       0.43532   0.02364   0.16326   0.0000000000
C          C       0.40622   0.02720  -0.06819   0.0000000000
O          O       0.54878   0.98269  -0.44934   0.0000000000
C          C       0.55162   0.94670  -0.39240   0.0000000000
C          C       0.51527   0.08698  -0.09685   0.0000000000
C          C       0.46393   0.91230  -0.14194   0.0000000000
N          N       0.42561   0.88435  -0.18805   0.0000000000
N          N       0.55099   0.11035   0.05308   0.0000000000
C          C       0.40977   0.84063  -0.16333   0.0000000000
C          C       0.57300   0.15415   0.10949   0.0000000000
C          C       0.61165   0.17091   0.27424   0.0000000000
C          C       0.63635   0.21319   0.31814   0.0000000000
C          C       0.62403   0.24090   0.20305   0.0000000000
C          C       0.58398   0.22373   0.04482   0.0000000000
C          C       0.55873   0.18081  -0.00370   0.0000000000
C          C       0.36879   0.81516  -0.05534   0.0000000000
C          C       0.35191   0.77248  -0.03487   0.0000000000
C          C       0.37526   0.75396  -0.13606   0.0000000000
C          C       0.41650   0.77963  -0.24619   0.0000000000
C          C       0.43367   0.82254  -0.25764   0.0000000000
C          C       0.65088   0.28679   0.27813   0.0000000000
C          C       0.35597   0.70810  -0.13648   0.0000000000
C          C       0.62962   0.30737   0.38272   0.0000000000
C          C       0.31745   0.62160  -0.11946   0.0000000000
C          C       0.04561   0.53003  -0.31908   0.0000000000
C          C       0.01791   0.54382  -0.40160   0.0000000000
C          C       0.97333   0.51691  -0.32263   0.0000000000
C          C       0.95790   0.47655  -0.19115   0.0000000000
C          C       0.98548   0.46124  -0.15143   0.0000000000
C          C       0.03011   0.48942  -0.19892   0.0000000000
O          O       0.97376   0.42217  -0.00554   0.0000000000
C          C       0.94597   0.38734  -0.22683   0.0000000000
O          O       0.03127   0.58013  -0.60671   0.0000000000
C          C       0.03295   0.61319  -0.39754   0.0000000000
C          C       0.91366   0.45066  -0.09148   0.0000000000
C          C       0.09067   0.55880  -0.33676   0.0000000000
N          N       0.11651   0.54517  -0.31815   0.0000000000
N          N       0.88877   0.46523  -0.05232   0.0000000000
C          C       0.16070   0.57008  -0.29989   0.0000000000
C          C       0.84599   0.43985   0.05465   0.0000000000
C          C       0.81661   0.45058  -0.05512   0.0000000000
C          C       0.77432   0.42321   0.00627   0.0000000000
C          C       0.76040   0.38468   0.18598   0.0000000000
C          C       0.79063   0.37658   0.31902   0.0000000000
C          C       0.83235   0.40294   0.25256   0.0000000000
C          C       0.18465   0.55255  -0.40323   0.0000000000
C          C       0.22774   0.57527  -0.37797   0.0000000000
C          C       0.24787   0.61593  -0.23910   0.0000000000
C          C       0.22346   0.63301  -0.12695   0.0000000000
C          C       0.18052   0.61054  -0.15911   0.0000000000
C          C       0.71511   0.35498   0.26175   0.0000000000
C          C       0.29381   0.64048  -0.19794   0.0000000000
C          C       0.69532   0.31043   0.22963   0.0000000000
C          C       0.37870   0.68865  -0.04549   0.0000000000
C          C       0.71776   2.29114   0.02108   0.0000000000
C          C       0.73867   1.26641   0.19046   0.0000000000
N          N       0.71912   1.22287   0.07565   0.0000000000
C          C       0.75129   1.21264  -0.04278   0.0000000000
N          N       0.79127   1.25090   0.03825   0.0000000000
C          C       0.78243   1.28135   0.10530   0.0000000000
C          C       0.74119   1.16687   0.12724   0.0000000000
C          C       0.69645   1.14859   0.30944   0.0000000000
C          C       0.78285   1.17592   0.31048   0.0000000000
C          C       0.73159   1.12440  -0.06051   0.0000000000
C          C       0.83363   1.26353  -0.09021   0.0000000000
O          O       0.80881   1.31759   0.09317   0.0000000000
H          H       0.47999   0.42422   0.26944   0.0000000000
H          H       0.52740   0.57294   0.38516   0.0000000000
H          H       0.63128   0.59144   0.17414   0.0000000000
H          H       0.60955   0.53651   0.12039   0.0000000000
H          H       0.64234   0.56258   0.51337   0.0000000000
H          H       0.37373   0.40584   0.48142   0.0000000000
H          H       0.36581   0.43742   0.14943   0.0000000000
H          H       0.39818   0.46080   0.55280   0.0000000000
H          H       0.58878   0.48741   0.62490   0.0000000000
H          H       0.41695   0.50862   0.05291   0.0000000000
H          H       0.52751   0.35476   0.18013   0.0000000000
H          H       0.56788   0.32049   0.16757   0.0000000000
H          H       0.67009   0.42790   0.68123   0.0000000000
H          H       0.63063   0.46309   0.65714   0.0000000000
H          H       0.48457   0.64395  -0.07306   0.0000000000
H          H       0.44321   0.67652  -0.18394   0.0000000000
H          H       0.33598   0.56740   0.24182   0.0000000000
H          H       0.37719   0.53430   0.32089   0.0000000000
H          H       0.70577   0.40636   0.35941   0.0000000000
H          H       0.29693   0.69818  -0.31649   0.0000000000
H          H       0.55864   0.05320  -0.35162   0.0000000000
H          H       0.41861   0.94621   0.04636   0.0000000000
H          H       0.38798  -0.00123  -0.23813   0.0000000000
H          H       0.42213   0.05469  -0.25191   0.0000000000
H          H       0.38462   0.03136   0.11539   0.0000000000
H          H       0.58097   0.95184  -0.51619   0.0000000000
H          H       0.52606   0.91957  -0.53186   0.0000000000
H          H       0.55337   0.94109  -0.09402   0.0000000000
H          H       0.49641   0.09936  -0.19402   0.0000000000
H          H       0.48500   0.90269  -0.04766   0.0000000000
H          H       0.62227   0.15069   0.37627   0.0000000000
H          H       0.66492   0.22377   0.44767   0.0000000000
H          H       0.57212   0.24332  -0.04699   0.0000000000
H          H       0.52874   0.16899  -0.13293   0.0000000000
H          H       0.35001   0.82854   0.01945   0.0000000000
H          H       0.32054   0.75394   0.06403   0.0000000000
H          H       0.43523   0.76655  -0.33304   0.0000000000
H          H       0.46513   0.84134  -0.35232   0.0000000000
H          H       0.59706   0.28946   0.44348   0.0000000000
H          H       0.30230   0.58840  -0.11299   0.0000000000
H          H       0.95270   0.52880  -0.37312   0.0000000000
H          H       0.05083   0.47814  -0.12907   0.0000000000
H          H       0.92087   0.36456  -0.04509   0.0000000000
H          H       0.96280   0.37261  -0.34484   0.0000000000
H          H       0.93143   0.39547  -0.45629   0.0000000000
H          H       0.03858   0.63850  -0.59356   0.0000000000
H          H       0.05937   0.62518  -0.20044   0.0000000000
H          H       0.00366   0.60367  -0.24484   0.0000000000
H          H       0.90173   0.41831  -0.05283   0.0000000000
H          H       0.10174   0.59158  -0.35328   0.0000000000
H          H       0.82621   0.47909  -0.20562   0.0000000000
H          H       0.75258   0.43164  -0.10189   0.0000000000
H          H       0.78276   0.34953   0.47334   0.0000000000
H          H       0.85388   0.39442   0.36543   0.0000000000
H          H       0.16984   0.52128  -0.50916   0.0000000000
H          H       0.24518   0.56109  -0.47254   0.0000000000
H          H       0.23742   0.66339  -0.00131   0.0000000000
H          H       0.16292   0.62434  -0.05926   0.0000000000
H          H       0.41060   0.70749   0.03728   0.0000000000
H          H       0.74112   2.31573  -0.14381   0.0000000000
H          H       0.69472   2.27130  -0.18050   0.0000000000
H          H       0.73826   1.26708   0.48692   0.0000000000
H          H       0.69726   1.21508  -0.13339   0.0000000000
H          H       0.75046   1.21185  -0.34136   0.0000000000
H          H       0.67727   1.11520   0.36417   0.0000000000
H          H       0.67538   1.14896   0.09471   0.0000000000
H          H       0.69256   1.16560   0.53506   0.0000000000
H          H       0.80479   1.18388   0.07879   0.0000000000
H          H       0.78739   1.15054   0.39953   0.0000000000
H          H       0.79712   1.20100   0.50762   0.0000000000
H          H       0.72571   1.10271   0.17777   0.0000000000
H          H       0.75630   1.11999  -0.16695   0.0000000000
H          H       0.70209   1.10471  -0.19593   0.0000000000
H          H       0.83627   1.26779  -0.39279   0.0000000000
H          H       0.84542   1.24344   0.00035   0.0000000000
H          H       0.85651   1.29391   0.02825   0.0000000000
