data_crystal
 
_cell_length_a    37.30080
_cell_length_b    37.30520
_cell_length_c    3.53000
_cell_angle_alpha 90.01240
_cell_angle_beta  89.98650
_cell_angle_gamma 120.01550
 
_symmetry_space_group_name_Hall 'P 1'
_symmetry_space_group_name_H-M  'P 1'
 
loop_
_symmetry_equiv_pos_as_xyz
 'x,y,z' 
 
loop_
_atom_site_label
_atom_site_type_symbol
_atom_site_fract_x
_atom_site_fract_y
_atom_site_fract_z
_atom_site_charge
C          C       0.47701   0.51759   0.21061   0.0000000000
C          C       0.46338   0.47478   0.17065   0.0000000000
C          C       0.49121   0.46048   0.23237   0.0000000000
C          C       0.53192   0.48716   0.35468   0.0000000000
C          C       0.54484   0.52918   0.41530   0.0000000000
C          C       0.51747   0.54401   0.34328   0.0000000000
O          O       0.58314   0.55494   0.58817   0.0000000000
C          C       0.61172   0.59021   0.37420   0.0000000000
O          O       0.42372   0.44561   0.04096   0.0000000000
C          C       0.38920   0.44002   0.26248   0.0000000000
C          C       0.56134   0.47165   0.41030   0.0000000000
C          C       0.44987   0.53493   0.11246   0.0000000000
N          N       0.46241   0.57413   0.15256   0.0000000000
N          N       0.55026   0.43318   0.34117   0.0000000000
C          C       0.43682   0.59233   0.08834   0.0000000000
C          C       0.57559   0.41404   0.36265   0.0000000000
C          C       0.55790   0.37249   0.25378   0.0000000000
C          C       0.58143   0.35276   0.24589   0.0000000000
C          C       0.62346   0.37413   0.35101   0.0000000000
C          C       0.64091   0.41556   0.47107   0.0000000000
C          C       0.61742   0.43537   0.47606   0.0000000000
C          C       0.45492   0.63302  -0.04471   0.0000000000
C          C       0.43090   0.65179  -0.10333   0.0000000000
C          C       0.38825   0.63084  -0.01477   0.0000000000
C          C       0.37073   0.59032   0.13335   0.0000000000
C          C       0.39451   0.57119   0.17941   0.0000000000
C          C       0.64943   0.35401   0.31781   0.0000000000
C          C       0.36211   0.65050  -0.08770   0.0000000000
C          C       0.69044   0.37692   0.19910   0.0000000000
C          C       0.31238   0.68729  -0.26290   0.0000000000
C          C       0.49256   0.96414  -0.26985   0.0000000000
C          C       0.53402   0.99712  -0.27997   0.0000000000
C          C       0.54250   0.03739  -0.20034   0.0000000000
C          C       0.51098   0.04608  -0.10205   0.0000000000
C          C       0.46940   0.01344  -0.11152   0.0000000000
C          C       0.46097   0.97319  -0.18644   0.0000000000
O          O       0.43576   0.01814  -0.00391   0.0000000000
C          C       0.42747   0.04494  -0.22960   0.0000000000
O          O       0.56759   0.99235  -0.38949   0.0000000000
C          C       0.57564   0.96491  -0.17114   0.0000000000
C          C       0.52262   0.08872   0.01821   0.0000000000
C          C       0.48090   0.92024  -0.33281   0.0000000000
N          N       0.44606   0.89179  -0.19334   0.0000000000
N          N       0.56024   0.11385   0.12717   0.0000000000
C          C       0.42725   0.84765  -0.19560   0.0000000000
C          C       0.57806   0.15668   0.22664   0.0000000000
C          C       0.61494   0.17470   0.42877   0.0000000000
C          C       0.63691   0.21722   0.48827   0.0000000000
C          C       0.62727   0.24403   0.29749   0.0000000000
C          C       0.58780   0.22549   0.12103   0.0000000000
C          C       0.56309   0.18219   0.09024   0.0000000000
C          C       0.38928   0.82602  -0.01494   0.0000000000
C          C       0.36902   0.78327   0.00695   0.0000000000
C          C       0.38174   0.75981  -0.19755   0.0000000000
C          C       0.42186   0.78163  -0.36127   0.0000000000
C          C       0.44481   0.82538  -0.35676   0.0000000000
C          C       0.65461   0.29067   0.31057   0.0000000000
C          C       0.35663   0.71314  -0.18968   0.0000000000
C          C       0.63270   0.31173   0.38503   0.0000000000
C          C       0.31961   0.62611  -0.15383   0.0000000000
C          C       0.04755   0.52485  -0.25368   0.0000000000
C          C       0.02142   0.54236  -0.25794   0.0000000000
C          C       0.97915   0.51724  -0.18337   0.0000000000
C          C       0.96190   0.47520  -0.09025   0.0000000000
C          C       0.98796   0.45762  -0.08832   0.0000000000
C          C       0.03025   0.48274  -0.16277   0.0000000000
O          O       0.97450   0.41653   0.01933   0.0000000000
C          C       0.94277   0.38421  -0.20327   0.0000000000
O          O       0.03483   0.58345  -0.36517   0.0000000000
C          C       0.06629   0.61581  -0.14091   0.0000000000
C          C       0.91719   0.45035   0.00095   0.0000000000
C          C       0.09252   0.55004  -0.33293   0.0000000000
N          N       0.11765   0.53606  -0.26781   0.0000000000
N          N       0.89245   0.46529  -0.03568   0.0000000000
C          C       0.16181   0.56257  -0.26928   0.0000000000
C          C       0.84832   0.43987  -0.00224   0.0000000000
C          C       0.82485   0.45552   0.16209   0.0000000000
C          C       0.78198   0.42982   0.21084   0.0000000000
C          C       0.76125   0.38845   0.07601   0.0000000000
C          C       0.78505   0.37550  -0.12850   0.0000000000
C          C       0.82789   0.39992  -0.15458   0.0000000000
C          C       0.18772   0.54850  -0.41015   0.0000000000
C          C       0.23089   0.57477  -0.40982   0.0000000000
C          C       0.24878   0.61493  -0.25236   0.0000000000
C          C       0.22245   0.62683  -0.08434   0.0000000000
C          C       0.17965   0.60185  -0.10295   0.0000000000
C          C       0.71583   0.35928   0.16099   0.0000000000
C          C       0.29460   0.64347  -0.22967   0.0000000000
C          C       0.69844   0.31536   0.21149   0.0000000000
C          C       0.37953   0.69361  -0.09390   0.0000000000
O          O       0.72604   2.30058   0.11948   0.0000000000
C          C       0.72568   2.26501   0.27170   0.0000000000
C          C       0.76499   2.26228   0.16766   0.0000000000
N          N       0.76566   2.22548   0.30843   0.0000000000
C          C       0.80690   2.23554   0.43475   0.0000000000
C          C       0.83444   2.28228   0.39877   0.0000000000
C          C       0.80657   2.29954   0.28101   0.0000000000
C          C       0.73470   2.18493   0.26501   0.0000000000
O          O       0.74499   2.15300   0.26870   0.0000000000
C          C       0.71498   2.10825   0.36272   0.0000000000
C          C       0.66395   2.08901   0.29253   0.0000000000
C          C       0.73392   2.07620   0.29214   0.0000000000
C          C       0.71757   2.11112   0.68857   0.0000000000
O          O       0.69915   2.17660   0.21194   0.0000000000
O          O       1.28572   1.70054  -0.42749   0.0000000000
C          C       1.28129   1.73329  -0.26080   0.0000000000
C          C       1.24279   1.73739  -0.38063   0.0000000000
C          C       1.20006   1.70179  -0.27243   0.0000000000
C          C       1.17373   1.72139  -0.18619   0.0000000000
C          C       1.20377   1.76703  -0.10916   0.0000000000
N          N       1.24440   1.77564  -0.24390   0.0000000000
C          C       1.27572   1.81503  -0.34168   0.0000000000
O          O       1.27687   1.85157  -0.20259   0.0000000000
C          C       1.28490   1.88495  -0.46084   0.0000000000
C          C       1.24087   1.86763  -0.63786   0.0000000000
C          C       1.32909   1.89931  -0.64005   0.0000000000
C          C       1.29232   1.92765  -0.30637   0.0000000000
O          O       1.30397   1.81827  -0.53745   0.0000000000
H          H       0.48059   0.42801   0.18487   0.0000000000
H          H       0.52770   0.57623   0.39917   0.0000000000
H          H       0.59667   0.60555   0.22738   0.0000000000
H          H       0.62796   0.58076   0.16944   0.0000000000
H          H       0.63552   0.61322   0.56741   0.0000000000
H          H       0.37498   0.40936   0.40335   0.0000000000
H          H       0.36560   0.44042   0.07455   0.0000000000
H          H       0.39765   0.46447   0.47844   0.0000000000
H          H       0.59261   0.49342   0.49650   0.0000000000
H          H       0.41945   0.51483  -0.00303   0.0000000000
H          H       0.52588   0.35561   0.16344   0.0000000000
H          H       0.56698   0.32123   0.14310   0.0000000000
H          H       0.67287   0.43281   0.56220   0.0000000000
H          H       0.63243   0.46720   0.56850   0.0000000000
H          H       0.48759   0.64988  -0.11329   0.0000000000
H          H       0.44588   0.68238  -0.22729   0.0000000000
H          H       0.33880   0.57333   0.22393   0.0000000000
H          H       0.38010   0.54036   0.29900   0.0000000000
H          H       0.70254   0.40906   0.12481   0.0000000000
H          H       0.57446   0.06211  -0.21042   0.0000000000
H          H       0.42891   0.94864  -0.17838   0.0000000000
H          H       0.39752   0.02618  -0.37830   0.0000000000
H          H       0.45214   0.06280  -0.43969   0.0000000000
H          H       0.42457   0.06729  -0.04346   0.0000000000
H          H       0.57776   0.94241  -0.36155   0.0000000000
H          H       0.55138   0.94724   0.04198   0.0000000000
H          H       0.60590   0.98315  -0.02595   0.0000000000
H          H       0.50014   0.09879   0.02460   0.0000000000
H          H       0.50131   0.91212  -0.47785   0.0000000000
H          H       0.62583   0.15544   0.55475   0.0000000000
H          H       0.66090   0.22875   0.69057   0.0000000000
H          H       0.57687   0.24438  -0.01135   0.0000000000
H          H       0.53450   0.16934  -0.06834   0.0000000000
H          H       0.37652   0.84268   0.13037   0.0000000000
H          H       0.34358   0.76844   0.19238   0.0000000000
H          H       0.43496   0.76501  -0.50125   0.0000000000
H          H       0.47492   0.84125  -0.49030   0.0000000000
H          H       0.60099   0.29435   0.48279   0.0000000000
H          H       0.30536   0.59286  -0.14406   0.0000000000
H          H       0.95977   0.53122  -0.19436   0.0000000000
H          H       0.04965   0.46880  -0.15146   0.0000000000
H          H       0.95586   0.36712  -0.35139   0.0000000000
H          H       0.92901   0.39578  -0.41350   0.0000000000
H          H       0.91758   0.36209  -0.01523   0.0000000000
H          H       0.09151   0.63807  -0.32790   0.0000000000
H          H       0.08006   0.60433   0.07028   0.0000000000
H          H       0.05294   0.63271   0.00645   0.0000000000
H          H       0.90445   0.41868   0.09162   0.0000000000
H          H       0.10522   0.58159  -0.42765   0.0000000000
H          H       0.84006   0.48679   0.27242   0.0000000000
H          H       0.76575   0.44204   0.37084   0.0000000000
H          H       0.77056   0.34748  -0.28968   0.0000000000
H          H       0.84499   0.38849  -0.31236   0.0000000000
H          H       0.17447   0.51783  -0.53170   0.0000000000
H          H       0.25000   0.56387  -0.53860   0.0000000000
H          H       0.23539   0.65470   0.08063   0.0000000000
H          H       0.16037   0.61217   0.03262   0.0000000000
H          H       0.41175   0.71269  -0.01764   0.0000000000
H          H       0.69975   2.23778   0.14945   0.0000000000
H          H       0.72255   2.26566   0.56964   0.0000000000
H          H       0.76607   2.26040  -0.12980   0.0000000000
H          H       0.81959   2.21879   0.27515   0.0000000000
H          H       0.80512   2.22536   0.72390   0.0000000000
H          H       0.86015   2.28941   0.20382   0.0000000000
H          H       0.85076   2.29753   0.65625   0.0000000000
H          H       0.82204   2.32336   0.06294   0.0000000000
H          H       0.80190   2.31613   0.51085   0.0000000000
H          H       0.64615   2.05619   0.38862   0.0000000000
H          H       0.65047   2.08702   0.01388   0.0000000000
H          H       0.65109   2.10636   0.44125   0.0000000000
H          H       0.74071   2.06842   0.01223   0.0000000000
H          H       0.71255   2.04462   0.40534   0.0000000000
H          H       0.76512   2.08788   0.42096   0.0000000000
H          H       0.70585   2.13229   0.76762   0.0000000000
H          H       0.75157   2.12497   0.76853   0.0000000000
H          H       0.69635   2.07835   0.78213   0.0000000000
H          H       1.30769   1.76231  -0.34084   0.0000000000
H          H       1.28202   1.73003   0.03460   0.0000000000
H          H       1.24199   1.73942  -0.67688   0.0000000000
H          H       1.18441   1.67643  -0.47742   0.0000000000
H          H       1.20275   1.68658  -0.02420   0.0000000000
H          H       1.15172   1.70402   0.03893   0.0000000000
H          H       1.15316   1.71918  -0.41608   0.0000000000
H          H       1.20472   1.77255   0.18981   0.0000000000
H          H       1.19335   1.78693  -0.24773   0.0000000000
H          H       1.22816   1.83792  -0.77919   0.0000000000
H          H       1.23370   1.88881  -0.78692   0.0000000000
H          H       1.21854   1.85910  -0.40067   0.0000000000
H          H       1.33262   1.87967  -0.84659   0.0000000000
H          H       1.34970   1.89980  -0.41335   0.0000000000
H          H       1.34758   1.93187  -0.73033   0.0000000000
H          H       1.29781   1.94809  -0.55341   0.0000000000
H          H       1.32091   1.94644  -0.14881   0.0000000000
H          H       1.26622   1.92927  -0.18342   0.0000000000
