data_DMTA-TPB3
_audit_creation_date              0000-00-00
_audit_creation_method            'LanYouShi'
_symmetry_space_group_name_H-M    'P1'
_cell_length_a                    37.7150002
_cell_length_b                    37.6910019
_cell_length_c                    3.5500000
_cell_angle_alpha                 90.0117035
_cell_angle_beta                  89.9843979
_cell_angle_gamma                 120.0100021
loop_
_atom_site_label
_atom_site_type_symbol
_atom_site_fract_x
_atom_site_fract_y
_atom_site_fract_z
_atom_site_U_iso_or_equiv
_atom_site_adp_type
_atom_site_occupancy
       C11          C  0.4787700  0.5235100  0.0683700    0.00000       Uiso       1.00
       C22          C  0.4664300  0.4826500 -0.0285600    0.00000       Uiso       1.00
       C33          C  0.4957300  0.4697100 -0.0372400    0.00000       Uiso       1.00
       C44          C  0.5367301  0.4963100  0.0672100    0.00000       Uiso       1.00
       C55          C  0.5489401  0.5370700  0.1649300    0.00000       Uiso       1.00
       C66          C  0.5197900  0.5501199  0.1696100    0.00000       Uiso       1.00
       O77          O  0.5896900  0.5634699  0.2776900    0.00000       Uiso       1.00
       C88          C  0.6098600  0.6040000  0.1238700    0.00000       Uiso       1.00
       O99          O  0.4256800  0.4564500 -0.1417200    0.00000       Uiso       1.00
     C1010          C  0.4057700  0.4155700  0.0040300    0.00000       Uiso       1.00
     C1111          C  0.5671900  0.4820400  0.0728200    0.00000       Uiso       1.00
     C1212          C  0.4486200  0.5381100  0.0706200    0.00000       Uiso       1.00
     N1313          N  0.4607900  0.5771300  0.0753700    0.00000       Uiso       1.00
     N1414          N  0.5569100  0.4445500 -0.0145000    0.00000       Uiso       1.00
     C1515          C  0.4351900  0.5955100  0.0741300    0.00000       Uiso       1.00
     C1616          C  0.5827900  0.4263600 -0.0121500    0.00000       Uiso       1.00
     C1717          C  0.5664300  0.3862800 -0.1464000    0.00000       Uiso       1.00
     C1818          C  0.5895700  0.3665700 -0.1471700    0.00000       Uiso       1.00
     C1919          C  0.6298300  0.3860400 -0.0023000    0.00000       Uiso       1.00
     C2020          C  0.6461501  0.4264900  0.1335800    0.00000       Uiso       1.00
     C2121          C  0.6232200  0.4464900  0.1264700    0.00000       Uiso       1.00
     C2222          C  0.4522800  0.6362000 -0.0454300    0.00000       Uiso       1.00
     C2323          C  0.4288500  0.6555499 -0.0566800    0.00000       Uiso       1.00
     C2424          C  0.3876400  0.6351700  0.0636000    0.00000       Uiso       1.00
     C2525          C  0.3710300  0.5945800  0.1971800    0.00000       Uiso       1.00
     C2626          C  0.3943100  0.5749000  0.1992800    0.00000       Uiso       1.00
     C2727          C  0.6539400  0.3639600  0.0220900    0.00000       Uiso       1.00
     C2828          C  0.3622200  0.6557900  0.0364700    0.00000       Uiso       1.00
     C2929          C  0.6967700  0.3856800  0.0348500    0.00000       Uiso       1.00
     C3030          C  0.3148300  0.6958900 -0.0735000    0.00000       Uiso       1.00
     C3131          C  0.4956200  0.9675300 -0.0016700    0.00000       Uiso       1.00
     C3232          C  0.5367500  0.9982600 -0.0703100    0.00000       Uiso       1.00
     C3333          C  0.5483800  0.0395500 -0.0231800    0.00000       Uiso       1.00
     C3434          C  0.5205200  0.0515000  0.1020200    0.00000       Uiso       1.00
     C3535          C  0.4798800  0.0212200  0.1770100    0.00000       Uiso       1.00
     C3636          C  0.4679900  0.9795700  0.1328900    0.00000       Uiso       1.00
     O3737          O  0.4523200  0.0333300  0.3076400    0.00000       Uiso       1.00
     C3838          C  0.4131800  0.0153500  0.1276000    0.00000       Uiso       1.00
     O3939          O  0.5666400  0.9899199 -0.2112300    0.00000       Uiso       1.00
     C4040          C  0.5751401  0.9629000  0.0026500    0.00000       Uiso       1.00
     C4141          C  0.5335400  0.0955900  0.1448000    0.00000       Uiso       1.00
     C4242          C  0.4807000  0.9234800 -0.0806000    0.00000       Uiso       1.00
     N4343          N  0.4460301  0.8955800  0.0589400    0.00000       Uiso       1.00
     N4444          N  0.5696600  0.1233700  0.0327800    0.00000       Uiso       1.00
     C4545          C  0.4266101  0.8517500  0.0256100    0.00000       Uiso       1.00
     C4646          C  0.5879000  0.1671600  0.0448700    0.00000       Uiso       1.00
     C4747          C  0.6261400  0.1900500 -0.1228200    0.00000       Uiso       1.00
     C4848          C  0.6460900  0.2326400 -0.1206500    0.00000       Uiso       1.00
     C4949          C  0.6311000  0.2540200  0.0769500    0.00000       Uiso       1.00
     C5050          C  0.5913400  0.2311700  0.2330600    0.00000       Uiso       1.00
     C5151          C  0.5696300  0.1880200  0.2133200    0.00000       Uiso       1.00
     C5252          C  0.3879300  0.8288500  0.1859900    0.00000       Uiso       1.00
     C5353          C  0.3676300  0.7862400  0.1782100    0.00000       Uiso       1.00
     C5454          C  0.3829500  0.7648600 -0.0129500    0.00000       Uiso       1.00
     C5555          C  0.4229300  0.7876300 -0.1642500    0.00000       Uiso       1.00
     C5656          C  0.4448600  0.8308100 -0.1419500    0.00000       Uiso       1.00
     C5757          C  0.6559000  0.2999100  0.0844800    0.00000       Uiso       1.00
     C5858          C  0.3586001  0.7189700 -0.0155700    0.00000       Uiso       1.00
     C5959          C  0.6342800  0.3211900  0.0418700    0.00000       Uiso       1.00
     C6060          C  0.3198300  0.6330600 -0.0195500    0.00000       Uiso       1.00
     C6161          C  0.0498700  0.5320100 -0.1219300    0.00000       Uiso       1.00
     C6262          C  0.0234900  0.5481000 -0.1626800    0.00000       Uiso       1.00
     C6363          C  0.9816300  0.5237000 -0.0782700    0.00000       Uiso       1.00
     C6464          C  0.9652000  0.4829000  0.0424000    0.00000       Uiso       1.00
     C6565          C  0.9915400  0.4660600  0.0589900    0.00000       Uiso       1.00
     C6666          C  0.0334700  0.4911000 -0.0107000    0.00000       Uiso       1.00
     O6767          O  0.9784700  0.4257200  0.1734400    0.00000       Uiso       1.00
     C6868          C  0.9484700  0.3934500 -0.0553000    0.00000       Uiso       1.00
     O6969          O  0.0379400  0.5863000 -0.3353400    0.00000       Uiso       1.00
     C7070          C  0.0377900  0.6173500 -0.1077200    0.00000       Uiso       1.00
     C7171          C  0.9209400  0.4579700  0.1374800    0.00000       Uiso       1.00
     C7272          C  0.0946600  0.5590200 -0.1715500    0.00000       Uiso       1.00
     N7373          N  0.1200800  0.5451100 -0.1537500    0.00000       Uiso       1.00
     N7474          N  0.8958001  0.4720500  0.1027800    0.00000       Uiso       1.00
     C7575          C  0.1639000  0.5713500 -0.1433700    0.00000       Uiso       1.00
     C7676          C  0.8520500  0.4458200  0.1252200    0.00000       Uiso       1.00
     C7777          C  0.8269700  0.4599100  0.2786000    0.00000       Uiso       1.00
     C7878          C  0.7840800  0.4340100  0.2888600    0.00000       Uiso       1.00
     C7979          C  0.7655800  0.3942500  0.1295700    0.00000       Uiso       1.00
     C8080          C  0.7909501  0.3830600 -0.0510100    0.00000       Uiso       1.00
     C8181          C  0.8333700  0.4069700 -0.0413700    0.00000       Uiso       1.00
     C8282          C  0.1898700  0.5581500 -0.2921700    0.00000       Uiso       1.00
     C8383          C  0.2327100  0.5842200 -0.2854400    0.00000       Uiso       1.00
     C8484          C  0.2503200  0.6233700 -0.1143600    0.00000       Uiso       1.00
     C8585          C  0.2239700  0.6334100  0.0657700    0.00000       Uiso       1.00
     C8686          C  0.1815800  0.6092799  0.0399100    0.00000       Uiso       1.00
     C8787          C  0.7200700  0.3664400  0.1003900    0.00000       Uiso       1.00
     C8888          C  0.2957100  0.6516700 -0.0739500    0.00000       Uiso       1.00
     C8989          C  0.6999600  0.3222300  0.1197200    0.00000       Uiso       1.00
     C9090          C  0.3805501  0.6984600  0.0525400    0.00000       Uiso       1.00
     O9191          O  0.7199001  2.3023701  0.2931600    0.00000       Uiso       1.00
     C9292          C  0.7253600  2.2399199  0.1257500    0.00000       Uiso       1.00
     N9393          N  0.7574002  2.2301800  0.2236400    0.00000       Uiso       1.00
     C9494          C  0.7926201  2.2677300  0.3753700    0.00000       Uiso       1.00
     C9595          C  0.7878000  2.3038697  0.2362100    0.00000       Uiso       1.00
     C9696          C  0.7434001  2.2865000  0.0979900    0.00000       Uiso       1.00
     C9797          C  0.7442701  2.1896000  0.3183400    0.00000       Uiso       1.00
     O9898          O  0.7663602  2.1696000  0.2136900    0.00000       Uiso       1.00
     C9999          C  0.7729000  2.1438398  0.4739300    0.00000       Uiso       1.00
     C1001          C  0.7868502  2.1131401  0.3169600    0.00000       Uiso       1.00
     C1011          C  0.8125401  2.1777198  0.6609100    0.00000       Uiso       1.00
     C1021          C  0.7301800  2.1136599  0.6647100    0.00000       Uiso       1.00
     O1031          O  0.7086002  2.1681800  0.4139100    0.00000       Uiso       1.00
     O1041          O  1.2946900  1.7154299 -0.2485500    0.00000       Uiso       1.00
     C1051          C  1.2875901  1.7770500 -0.0893900    0.00000       Uiso       1.00
     C1061          C  1.2706901  1.7307999 -0.0543600    0.00000       Uiso       1.00
     C1071          C  1.2260500  1.7120700 -0.1871200    0.00000       Uiso       1.00
     C1081          C  1.2181901  1.7471100 -0.3057000    0.00000       Uiso       1.00
     N1091          N  1.2549400  1.7855799 -0.1959200    0.00000       Uiso       1.00
     C1101          C  1.2668101  1.8247699 -0.3290800    0.00000       Uiso       1.00
     O1111          O  1.2427400  1.8438400 -0.2696100    0.00000       Uiso       1.00
     C1121          C  1.2389600  1.8707500 -0.5387000    0.00000       Uiso       1.00
     C1131          C  1.1982001  1.8388600 -0.7237400    0.00000       Uiso       1.00
     C1141          C  1.2824601  1.8992900 -0.7169100    0.00000       Uiso       1.00
     C1151          C  1.2279201  1.9041299 -0.4068700    0.00000       Uiso       1.00
     O1161          O  1.3023200  1.8462399 -0.4275600    0.00000       Uiso       1.00
     C1171          C  0.8366901  2.2781000  0.3219600    0.00000       Uiso       1.00
     O1181          O  0.8478200  2.2530699  0.1247500    0.00000       Uiso       1.00
     C1191          C  0.8906201  2.2665799  0.0816200    0.00000       Uiso       1.00
     O1201          O  0.8630201  2.3099000  0.4682500    0.00000       Uiso       1.00
     C1211          C  1.1760900  1.7393999 -0.1745100    0.00000       Uiso       1.00
     O1221          O  1.1599200  1.7628199 -0.3218600    0.00000       Uiso       1.00
     C1231          C  1.1191101  1.7525399 -0.2158200    0.00000       Uiso       1.00
     O1241          O  1.1546700  1.7098699  0.0264600    0.00000       Uiso       1.00
     H1251          H  0.4865900  0.4390000 -0.1316300    0.00000       Uiso       1.00
     H1261          H  0.5289800  0.5808700  0.2621100    0.00000       Uiso       1.00
     H1271          H  0.5901901  0.6100100 -0.0668700    0.00000       Uiso       1.00
     H1281          H  0.6370900  0.6086400 -0.0361500    0.00000       Uiso       1.00
     H1291          H  0.6207000  0.6269200  0.3528400    0.00000       Uiso       1.00
     H1301          H  0.4251000  0.4096600  0.1998600    0.00000       Uiso       1.00
     H1311          H  0.3962000  0.3932800 -0.2282900    0.00000       Uiso       1.00
     H1321          H  0.3777300  0.4098700  0.1548000    0.00000       Uiso       1.00
     H1331          H  0.5982500  0.5036700  0.1544800    0.00000       Uiso       1.00
     H1341          H  0.4163300  0.5159000  0.0509200    0.00000       Uiso       1.00
     H1351          H  0.5354900  0.3702800 -0.2559000    0.00000       Uiso       1.00
     H1361          H  0.5757300  0.3362600 -0.2683700    0.00000       Uiso       1.00
     H1371          H  0.6762201  0.4425600  0.2604400    0.00000       Uiso       1.00
     H1381          H  0.6370900  0.4770400  0.2420600    0.00000       Uiso       1.00
     H1391          H  0.4837700  0.6526800 -0.1407200    0.00000       Uiso       1.00
     H1401          H  0.4430400  0.6862400 -0.1704600    0.00000       Uiso       1.00
     H1411          H  0.3402700  0.5780700  0.3088800    0.00000       Uiso       1.00
     H1421          H  0.3806200  0.5440500  0.3090300    0.00000       Uiso       1.00
     H1431          H  0.7125500  0.4184100 -0.0092000    0.00000       Uiso       1.00
     H1441          H  0.5797100  0.0624700 -0.0872300    0.00000       Uiso       1.00
     H1451          H  0.4368700  0.9565300  0.2016500    0.00000       Uiso       1.00
     H1461          H  0.4079600 -0.0089400 -0.0778400    0.00000       Uiso       1.00
     H1471          H  0.4106000  0.0398100 -0.0215800    0.00000       Uiso       1.00
     H1481          H  0.3885700  0.0019000  0.3413200    0.00000       Uiso       1.00
     H1491          H  0.5755500  0.9397400 -0.1869100    0.00000       Uiso       1.00
     H1501          H  0.5522301  0.9462500  0.2252400    0.00000       Uiso       1.00
     H1511          H  0.6058900  0.9808099  0.1326300    0.00000       Uiso       1.00
     H1521          H  0.5125300  0.1042500  0.2623800    0.00000       Uiso       1.00
     H1531          H  0.4987901  0.9149200 -0.2531500    0.00000       Uiso       1.00
     H1541          H  0.6398700  0.1746700 -0.2685200    0.00000       Uiso       1.00
     H1551          H  0.6730200  0.2496300 -0.2844900    0.00000       Uiso       1.00
     H1561          H  0.5775900  0.2463100  0.3819300    0.00000       Uiso       1.00
     H1571          H  0.5397700  0.1715300  0.3431500    0.00000       Uiso       1.00
     H1581          H  0.3742100  0.8442000  0.3324000    0.00000       Uiso       1.00
     H1591          H  0.3403600  0.7690700  0.3356400    0.00000       Uiso       1.00
     H1601          H  0.4368900  0.7722200 -0.3053800    0.00000       Uiso       1.00
     H1611          H  0.4752600  0.8472700 -0.2615100    0.00000       Uiso       1.00
     H1621          H  0.6013200  0.3037700  0.0265600    0.00000       Uiso       1.00
     H1631          H  0.3052500  0.6000800 -0.0243300    0.00000       Uiso       1.00
     H1641          H  0.9617600  0.5364400 -0.1171700    0.00000       Uiso       1.00
     H1651          H  0.0533100  0.4782400  0.0237400    0.00000       Uiso       1.00
     H1661          H  0.9626200  0.3772800 -0.1959200    0.00000       Uiso       1.00
     H1671          H  0.9348100  0.4043700 -0.2691400    0.00000       Uiso       1.00
     H1681          H  0.9232700  0.3711100  0.1254200    0.00000       Uiso       1.00
     H1691          H  0.0429900  0.6434100 -0.2899900    0.00000       Uiso       1.00
     H1701          H  0.0636100  0.6291400  0.0944100    0.00000       Uiso       1.00
     H1711          H  0.0080900  0.6062200  0.0396000    0.00000       Uiso       1.00
     H1721          H  0.9088300  0.4266200  0.2259400    0.00000       Uiso       1.00
     H1731          H  0.1063800  0.5915700 -0.2066800    0.00000       Uiso       1.00
     H1741          H  0.8406000  0.4903400  0.3987800    0.00000       Uiso       1.00
     H1751          H  0.7656300  0.4450400  0.4223600    0.00000       Uiso       1.00
     H1761          H  0.7769200  0.3573600 -0.2291400    0.00000       Uiso       1.00
     H1771          H  0.8514400  0.3965000 -0.1912400    0.00000       Uiso       1.00
     H1781          H  0.1769500  0.5284300 -0.4259200    0.00000       Uiso       1.00
     H1791          H  0.2516700  0.5739300 -0.4206400    0.00000       Uiso       1.00
     H1801          H  0.2369800  0.6586500  0.2521300    0.00000       Uiso       1.00
     H1811          H  0.1627400  0.6189000  0.1881800    0.00000       Uiso       1.00
     H1821          H  0.4127700  0.7163600  0.1201700    0.00000       Uiso       1.00
     H1831          H  0.6991801  2.2263298  0.3164000    0.00000       Uiso       1.00
     H1841          H  0.7126001  2.2244198 -0.1376900    0.00000       Uiso       1.00
     H1851          H  0.7888801  2.2652400  0.6716400    0.00000       Uiso       1.00
     H1861          H  0.8098701  2.3199701  0.0075100    0.00000       Uiso       1.00
     H1871          H  0.7979001  2.3281498  0.4423000    0.00000       Uiso       1.00
     H1881          H  0.7443101  2.2929201 -0.1906700    0.00000       Uiso       1.00
     H1891          H  0.7877302  2.1094100  0.0183800    0.00000       Uiso       1.00
     H1901          H  0.7672700  2.0810299  0.4139700    0.00000       Uiso       1.00
     H1911          H  0.8180601  2.1208000  0.4101800    0.00000       Uiso       1.00
     H1921          H  0.8374001  2.1908700  0.4519800    0.00000       Uiso       1.00
     H1931          H  0.8275000  2.1698198  0.8810800    0.00000       Uiso       1.00
     H1941          H  0.8084201  2.2036901  0.7296500    0.00000       Uiso       1.00
     H1951          H  0.7283401  2.0880599  0.8307000    0.00000       Uiso       1.00
     H1961          H  0.7076601  2.0974200  0.4373800    0.00000       Uiso       1.00
     H1971          H  0.7155801  2.1270101  0.8346400    0.00000       Uiso       1.00
     H1981          H  1.3140401  1.7911800 -0.2758900    0.00000       Uiso       1.00
     H1991          H  1.2998401  1.7927599  0.1735200    0.00000       Uiso       1.00
     H2002          H  1.2702001  1.7248200  0.2353700    0.00000       Uiso       1.00
     H2012          H  1.2053301  1.6936799  0.0388900    0.00000       Uiso       1.00
     H2022          H  1.2173301  1.6888800 -0.4020300    0.00000       Uiso       1.00
     H2032          H  1.2177200  1.7476599 -0.6059200    0.00000       Uiso       1.00
     H2042          H  1.1984800  1.8106899 -0.8019400    0.00000       Uiso       1.00
     H2052          H  1.1855700  1.8486999 -0.9419000    0.00000       Uiso       1.00
     H2062          H  1.1730701  1.8284599 -0.5177500    0.00000       Uiso       1.00
     H2072          H  1.2872400  1.9272199 -0.8566100    0.00000       Uiso       1.00
     H2082          H  1.2958201  1.8851999 -0.8910800    0.00000       Uiso       1.00
     H2092          H  1.3047100  1.9131100 -0.4830500    0.00000       Uiso       1.00
     H2102          H  1.1977001  1.8945800 -0.2827200    0.00000       Uiso       1.00
     H2112          H  1.2248701  1.9191899 -0.6626100    0.00000       Uiso       1.00
     H2122          H  1.2519101  1.9307499 -0.2576200    0.00000       Uiso       1.00
     H2132          H  0.8979701  2.2679698 -0.2161600    0.00000       Uiso       1.00
     H2142          H  0.8974901  2.2437601  0.2069800    0.00000       Uiso       1.00
     H2152          H  0.9117801  2.2973700  0.1990600    0.00000       Uiso       1.00
     H2162          H  1.1021000  1.7236899 -0.0535100    0.00000       Uiso       1.00
     H2172          H  1.1007301  1.7487999 -0.4693100    0.00000       Uiso       1.00
     H2182          H  1.1204600  1.7782500 -0.0528800    0.00000       Uiso       1.00
