data_crystal
 
_cell_length_a    35.91640
_cell_length_b    35.89730
_cell_length_c    3.60000
_cell_angle_alpha 90.00000
_cell_angle_beta  90.00000
_cell_angle_gamma 90.32200
 
_symmetry_space_group_name_Hall 'P 1'
_symmetry_space_group_name_H-M  'P 1'
 
loop_
_symmetry_equiv_pos_as_xyz
 'x,y,z' 
 
loop_
_atom_site_label
_atom_site_type_symbol
_atom_site_fract_x
_atom_site_fract_y
_atom_site_fract_z
_atom_site_charge
C          C       0.48198   0.68198   1.38889   0.0000000000
C          C       0.54107   0.64973   1.38889   0.0000000000
C          C       0.52051   0.61684   1.38889   0.0000000000
C          C       0.53329   0.57899   1.38889   0.0000000000
O          O       0.53179   0.71633   1.38889   0.0000000000
H          H       0.57062   0.64994   1.38889   0.0000000000
C          C       0.31761   0.48132   1.38889   0.0000000000
C          C       0.35053   0.54052   1.38889   0.0000000000
C          C       0.38321   0.51999   1.38889   0.0000000000
C          C       0.42153   0.53302   1.38889   0.0000000000
O          O       0.28389   0.53121   1.38889   0.0000000000
H          H       0.35061   0.57005   1.38889   0.0000000000
N          N       0.56744   0.56940   1.38889   0.0000000000
C          C       0.51802   0.31801   1.38889   0.0000000000
C          C       0.45893   0.35026   1.38889   0.0000000000
C          C       0.47949   0.38315   1.38889   0.0000000000
C          C       0.46671   0.42103   1.38889   0.0000000000
O          O       0.46821   0.28366   1.38889   0.0000000000
H          H       0.42938   0.35006   1.38889   0.0000000000
C          C       0.68239   0.51868   1.38889   0.0000000000
C          C       0.64947   0.45948   1.38889   0.0000000000
C          C       0.61679   0.48004   1.38889   0.0000000000
C          C       0.57847   0.46698   1.38889   0.0000000000
O          O       0.71611   0.46881   1.38889   0.0000000000
H          H       0.64939   0.42995   1.38889   0.0000000000
N          N       0.43256   0.43059   1.38889   0.0000000000
C          C       0.52035   0.68231   1.38889   0.0000000000
C          C       0.46141   0.64906   1.38889   0.0000000000
C          C       0.48217   0.61652   1.38889   0.0000000000
C          C       0.46961   0.57843   1.38889   0.0000000000
O          O       0.47034   0.71579   1.38889   0.0000000000
H          H       0.43187   0.64878   1.38889   0.0000000000
C          C       0.68225   0.48026   1.38889   0.0000000000
C          C       0.64975   0.53932   1.38889   0.0000000000
C          C       0.61694   0.51862   1.38889   0.0000000000
C          C       0.57872   0.53150   1.38889   0.0000000000
O          O       0.71634   0.53029   1.38889   0.0000000000
H          H       0.64985   0.56885   1.38889   0.0000000000
N          N       0.43180   0.56721   1.38889   0.0000000000
C          C       0.47966   0.31769   1.38889   0.0000000000
C          C       0.53859   0.35093   1.38889   0.0000000000
C          C       0.51783   0.38348   1.38889   0.0000000000
C          C       0.53039   0.42157   1.38889   0.0000000000
O          O       0.52967   0.28420   1.38889   0.0000000000
H          H       0.56813   0.35122   1.38889   0.0000000000
C          C       0.31775   0.51973   1.38889   0.0000000000
C          C       0.35026   0.46068   1.38889   0.0000000000
C          C       0.38307   0.48137   1.38889   0.0000000000
C          C       0.42128   0.46850   1.38889   0.0000000000
O          O       0.28367   0.46973   1.38889   0.0000000000
H          H       0.35012   0.43115   1.38889   0.0000000000
N          N       0.56820   0.43279   1.38889   0.0000000000
B          B       0.50098   0.73753   1.38889   0.0000000000
N          N       0.50156   0.55297   1.38889   0.0000000000
B          B       0.49902   0.26247   1.38889   0.0000000000
N          N       0.49845   0.44703   1.38889   0.0000000000
B          B       0.26234   0.50041   1.38889   0.0000000000
N          N       0.44438   0.50080   1.38889   0.0000000000
B          B       0.73766   0.49958   1.38889   0.0000000000
N          N       0.55562   0.49922   1.38889   0.0000000000
C          C       0.01976   0.50003   1.38889   0.0000000000
C          C       0.02003   0.56656   1.38889   0.0000000000
C          C       0.01949   0.43349   1.38889   0.0000000000
C          C       0.03960   0.53332   1.38889   0.0000000000
C          C       0.07885   0.53339   1.38889   0.0000000000
C          C       0.03933   0.46679   1.38889   0.0000000000
C          C       0.07858   0.46686   1.38889   0.0000000000
C          C       0.14004   0.50022   1.38889   0.0000000000
C          C       0.16122   0.53352   1.38889   0.0000000000
C          C       0.20026   0.53358   1.38889   0.0000000000
C          C       0.16095   0.46698   1.38889   0.0000000000
C          C       0.19999   0.46705   1.38889   0.0000000000
C          C       0.22033   0.50034   1.38889   0.0000000000
O          O       0.09551   0.56408   1.38889   0.0000000000
O          O       0.09499   0.43621   1.38889   0.0000000000
N          N       0.09869   0.50015   1.38889   0.0000000000
H          H       0.03527   0.59281   1.38889   0.0000000000
H          H       0.14728   0.56031   1.38889   0.0000000000
H          H       0.21550   0.55983   1.38889   0.0000000000
H          H       0.03452   0.40729   1.38889   0.0000000000
H          H       0.14679   0.44014   1.38889   0.0000000000
H          H       0.21502   0.44085   1.38889   0.0000000000
C          C       0.98024   0.49997   1.38889   0.0000000000
C          C       0.97997   0.43343   1.38889   0.0000000000
C          C       0.98051   0.56650   1.38889   0.0000000000
C          C       0.96041   0.46667   1.38889   0.0000000000
C          C       0.92115   0.46661   1.38889   0.0000000000
C          C       0.96067   0.53320   1.38889   0.0000000000
C          C       0.92142   0.53314   1.38889   0.0000000000
C          C       0.85996   0.49978   1.38889   0.0000000000
C          C       0.83878   0.46648   1.38889   0.0000000000
C          C       0.79974   0.46642   1.38889   0.0000000000
C          C       0.83905   0.53301   1.38889   0.0000000000
C          C       0.80001   0.53295   1.38889   0.0000000000
C          C       0.77967   0.49965   1.38889   0.0000000000
O          O       0.90449   0.43591   1.38889   0.0000000000
O          O       0.90501   0.56378   1.38889   0.0000000000
N          N       0.90132   0.49984   1.38889   0.0000000000
H          H       0.96473   0.40718   1.38889   0.0000000000
H          H       0.85272   0.43968   1.38889   0.0000000000
H          H       0.78450   0.44017   1.38889   0.0000000000
H          H       0.96548   0.59270   1.38889   0.0000000000
H          H       0.85321   0.55985   1.38889   0.0000000000
H          H       0.78498   0.55915   1.38889   0.0000000000
C          C       0.49993   0.01977   1.38889   0.0000000000
C          C       0.43343   0.01914   1.38889   0.0000000000
C          C       0.56643   0.02039   1.38889   0.0000000000
C          C       0.46661   0.03917   1.38889   0.0000000000
C          C       0.46646   0.07844   1.38889   0.0000000000
C          C       0.53310   0.03979   1.38889   0.0000000000
C          C       0.53295   0.07906   1.38889   0.0000000000
C          C       0.49948   0.14011   1.38889   0.0000000000
C          C       0.46615   0.16085   1.38889   0.0000000000
C          C       0.46601   0.19991   1.38889   0.0000000000
C          C       0.53265   0.16148   1.38889   0.0000000000
C          C       0.53250   0.20054   1.38889   0.0000000000
C          C       0.49918   0.22044   1.38889   0.0000000000
O          O       0.43574   0.09470   1.38889   0.0000000000
O          O       0.56355   0.09590   1.38889   0.0000000000
N          N       0.49963   0.09873   1.38889   0.0000000000
H          H       0.40716   0.03404   1.38889   0.0000000000
H          H       0.43940   0.14654   1.38889   0.0000000000
H          H       0.43974   0.21481   1.38889   0.0000000000
H          H       0.59258   0.03577   1.38889   0.0000000000
H          H       0.55950   0.14767   1.38889   0.0000000000
H          H       0.55865   0.21592   1.38889   0.0000000000
C          C       0.50008   0.98023   1.38889   0.0000000000
C          C       0.56658   0.98085   1.38889   0.0000000000
C          C       0.43357   0.97960   1.38889   0.0000000000
C          C       0.53340   0.96083   1.38889   0.0000000000
C          C       0.53354   0.92156   1.38889   0.0000000000
C          C       0.46690   0.96020   1.38889   0.0000000000
C          C       0.46705   0.92093   1.38889   0.0000000000
C          C       0.50052   0.85989   1.38889   0.0000000000
C          C       0.53385   0.83914   1.38889   0.0000000000
C          C       0.53400   0.80008   1.38889   0.0000000000
C          C       0.46736   0.83852   1.38889   0.0000000000
C          C       0.46750   0.79946   1.38889   0.0000000000
C          C       0.50082   0.77955   1.38889   0.0000000000
O          O       0.56426   0.90529   1.38889   0.0000000000
O          O       0.43646   0.90410   1.38889   0.0000000000
N          N       0.50037   0.90126   1.38889   0.0000000000
H          H       0.59284   0.96596   1.38889   0.0000000000
H          H       0.56060   0.85345   1.38889   0.0000000000
H          H       0.56026   0.78519   1.38889   0.0000000000
H          H       0.40742   0.96422   1.38889   0.0000000000
H          H       0.44050   0.85233   1.38889   0.0000000000
H          H       0.44135   0.78407   1.38889   0.0000000000
Ni         Ni      0.50000   0.50000   0.39000   0.0000000000
