data_crystal
 
_cell_length_a    54.83820
_cell_length_b    54.83820
_cell_length_c    4.80420
_cell_angle_alpha 90.00000
_cell_angle_beta  90.00000
_cell_angle_gamma 120.00000
 
_symmetry_space_group_name_Hall 'P 1'
_symmetry_space_group_name_H-M  'P 1'
 
loop_
_symmetry_equiv_pos_as_xyz
 'x,y,z' 
 
loop_
_atom_site_label
_atom_site_type_symbol
_atom_site_fract_x
_atom_site_fract_y
_atom_site_fract_z
_atom_site_charge
C          C       0.48720   0.48790   0.49990   0.0000000000
C          C       0.46012   0.48749   0.50490   0.0000000000
C          C       0.43756   0.46772   0.34244   0.0000000000
C          C       0.41198   0.46681   0.33941   0.0000000000
C          C       0.40836   0.48627   0.49854   0.0000000000
C          C       0.43061   0.50592   0.66411   0.0000000000
C          C       0.45570   0.50614   0.66926   0.0000000000
C          C       0.48372   0.45958   0.49561   0.0000000000
C          C       0.46240   0.43831   0.65823   0.0000000000
C          C       0.45805   0.41135   0.65958   0.0000000000
C          C       0.47563   0.40501   0.50175   0.0000000000
C          C       0.49691   0.42598   0.33750   0.0000000000
C          C       0.50061   0.45267   0.33287   0.0000000000
C          C       0.36002   0.46619   0.55210   0.0000000000
C          C       0.33423   0.46707   0.51497   0.0000000000
C          C       0.31016   0.44820   0.66325   0.0000000000
C          C       0.28648   0.45099   0.65631   0.0000000000
C          C       0.28657   0.47245   0.49768   0.0000000000
C          C       0.31044   0.49051   0.33960   0.0000000000
C          C       0.33401   0.48782   0.34626   0.0000000000
C          C       0.26218   0.47634   0.49820   0.0000000000
C          C       0.49192   0.37440   0.57804   0.0000000000
C          C       0.49031   0.34738   0.55503   0.0000000000
C          C       0.51017   0.34267   0.69008   0.0000000000
C          C       0.50876   0.31694   0.66573   0.0000000000
C          C       0.48699   0.29520   0.51288   0.0000000000
C          C       0.46707   0.30007   0.38009   0.0000000000
C          C       0.46885   0.32590   0.39611   0.0000000000
C          C       0.48417   0.26748   0.50250   0.0000000000
C          C       0.50736   0.26340   0.50173   0.0000000000
C          C       0.45720   0.24369   0.50044   0.0000000000
C          C       0.50377   0.23673   0.49794   0.0000000000
C          C       0.23500   0.45315   0.50045   0.0000000000
H          H       0.47310   0.52130   0.81350   0.0000000000
H          H       0.44070   0.45280   0.20330   0.0000000000
H          H       0.39500   0.45210   0.19190   0.0000000000
H          H       0.42750   0.52060   0.80560   0.0000000000
H          H       0.44900   0.44360   0.79900   0.0000000000
H          H       0.44170   0.39520   0.80250   0.0000000000
H          H       0.50990   0.42080   0.19460   0.0000000000
H          H       0.51710   0.46910   0.19090   0.0000000000
H          H       0.35870   0.44730   0.65950   0.0000000000
H          H       0.31120   0.43230   0.80870   0.0000000000
H          H       0.26860   0.43740   0.79620   0.0000000000
H          H       0.31040   0.50660   0.19570   0.0000000000
H          H       0.35350   0.50180   0.21550   0.0000000000
H          H       0.51160   0.39240   0.67380   0.0000000000
H          H       0.52640   0.35990   0.83460   0.0000000000
H          H       0.52380   0.31350   0.79000   0.0000000000
H          H       0.45060   0.28380   0.24460   0.0000000000
H          H       0.45410   0.33100   0.27890   0.0000000000
H          H       0.52810   0.28220   0.50200   0.0000000000
H          H       0.43870   0.24700   0.50470   0.0000000000
H          H       0.28730   0.52170   0.49840   0.0000000000
H          H       0.23320   0.43240   0.49970   0.0000000000
N          N       0.38378   0.48705   0.48399   0.0000000000
N          N       0.47171   0.37817   0.50271   0.0000000000
C          C       0.51210   0.99930   0.49990   0.0000000000
C          C       0.51251   0.97263   0.50490   0.0000000000
C          C       0.53228   0.96983   0.34244   0.0000000000
C          C       0.53319   0.94517   0.33941   0.0000000000
C          C       0.51373   0.92210   0.49854   0.0000000000
C          C       0.49408   0.92469   0.66411   0.0000000000
C          C       0.49386   0.94956   0.66926   0.0000000000
C          C       0.54042   0.02414   0.49561   0.0000000000
C          C       0.56169   0.02409   0.65823   0.0000000000
C          C       0.58865   0.04670   0.65958   0.0000000000
C          C       0.59499   0.07062   0.50175   0.0000000000
C          C       0.57402   0.07093   0.33750   0.0000000000
C          C       0.54733   0.04793   0.33287   0.0000000000
C          C       0.53381   0.89383   0.55210   0.0000000000
C          C       0.53293   0.86716   0.51497   0.0000000000
C          C       0.55180   0.86196   0.66325   0.0000000000
C          C       0.54901   0.83549   0.65631   0.0000000000
C          C       0.52755   0.81412   0.49768   0.0000000000
C          C       0.50949   0.81993   0.33960   0.0000000000
C          C       0.51218   0.84619   0.34626   0.0000000000
C          C       0.52365   0.78584   0.49820   0.0000000000
C          C       0.62560   0.11752   0.57804   0.0000000000
C          C       0.65262   0.14293   0.55503   0.0000000000
C          C       0.65733   0.16750   0.69008   0.0000000000
C          C       0.68306   0.19182   0.66573   0.0000000000
C          C       0.70479   0.19178   0.51288   0.0000000000
C          C       0.69993   0.16699   0.38009   0.0000000000
C          C       0.67410   0.14295   0.39611   0.0000000000
C          C       0.73252   0.21669   0.50250   0.0000000000
C          C       0.73660   0.24396   0.50173   0.0000000000
C          C       0.75631   0.21351   0.50044   0.0000000000
C          C       0.76327   0.26705   0.49794   0.0000000000
C          C       0.54685   0.78185   0.50045   0.0000000000
H          H       0.47870   0.95180   0.81350   0.0000000000
H          H       0.54720   0.98790   0.20330   0.0000000000
H          H       0.54790   0.94290   0.19190   0.0000000000
H          H       0.47940   0.90690   0.80560   0.0000000000
H          H       0.55640   0.00540   0.79900   0.0000000000
H          H       0.60480   0.04650   0.80250   0.0000000000
H          H       0.57920   0.08910   0.19460   0.0000000000
H          H       0.53090   0.04800   0.19090   0.0000000000
H          H       0.55270   0.91140   0.65950   0.0000000000
H          H       0.56770   0.87890   0.80870   0.0000000000
H          H       0.56260   0.83120   0.79620   0.0000000000
H          H       0.49340   0.80380   0.19570   0.0000000000
H          H       0.49820   0.85170   0.21550   0.0000000000
H          H       0.60760   0.11920   0.67380   0.0000000000
H          H       0.64010   0.16650   0.83460   0.0000000000
H          H       0.68650   0.21030   0.79000   0.0000000000
H          H       0.71620   0.16680   0.24460   0.0000000000
H          H       0.66900   0.12310   0.27890   0.0000000000
H          H       0.71780   0.24590   0.50200   0.0000000000
H          H       0.75300   0.19170   0.50470   0.0000000000
H          H       0.47830   0.76560   0.49840   0.0000000000
H          H       0.56760   0.80080   0.49970   0.0000000000
N          N       0.51295   0.89672   0.48399   0.0000000000
N          N       0.62183   0.09354   0.50271   0.0000000000
C          C       0.00070   0.51280   0.49990   0.0000000000
C          C       0.02737   0.53988   0.50490   0.0000000000
C          C       0.03017   0.56244   0.34244   0.0000000000
C          C       0.05483   0.58801   0.33941   0.0000000000
C          C       0.07790   0.59164   0.49854   0.0000000000
C          C       0.07531   0.56939   0.66411   0.0000000000
C          C       0.05044   0.54430   0.66926   0.0000000000
C          C       0.97586   0.51628   0.49561   0.0000000000
C          C       0.97591   0.53760   0.65823   0.0000000000
C          C       0.95330   0.54195   0.65958   0.0000000000
C          C       0.92938   0.52437   0.50175   0.0000000000
C          C       0.92907   0.50309   0.33750   0.0000000000
C          C       0.95207   0.49939   0.33287   0.0000000000
C          C       0.10617   0.63998   0.55210   0.0000000000
C          C       0.13284   0.66577   0.51497   0.0000000000
C          C       0.13804   0.68984   0.66325   0.0000000000
C          C       0.16451   0.71352   0.65631   0.0000000000
C          C       0.18588   0.71343   0.49768   0.0000000000
C          C       0.18007   0.68956   0.33960   0.0000000000
C          C       0.15381   0.66599   0.34626   0.0000000000
C          C       0.21416   0.73782   0.49820   0.0000000000
C          C       0.88248   0.50808   0.57804   0.0000000000
C          C       0.85707   0.50969   0.55503   0.0000000000
C          C       0.83250   0.48983   0.69008   0.0000000000
C          C       0.80818   0.49124   0.66573   0.0000000000
C          C       0.80822   0.51301   0.51288   0.0000000000
C          C       0.83300   0.53293   0.38009   0.0000000000
C          C       0.85705   0.53115   0.39611   0.0000000000
C          C       0.78331   0.51583   0.50250   0.0000000000
C          C       0.75604   0.49264   0.50173   0.0000000000
C          C       0.78649   0.54280   0.50044   0.0000000000
C          C       0.73295   0.49623   0.49794   0.0000000000
C          C       0.21815   0.76500   0.50045   0.0000000000
H          H       0.04820   0.52690   0.81350   0.0000000000
H          H       0.01210   0.55930   0.20330   0.0000000000
H          H       0.05710   0.60500   0.19190   0.0000000000
H          H       0.09310   0.57250   0.80560   0.0000000000
H          H       0.99460   0.55100   0.79900   0.0000000000
H          H       0.95350   0.55830   0.80250   0.0000000000
H          H       0.91090   0.49010   0.19460   0.0000000000
H          H       0.95200   0.48290   0.19090   0.0000000000
H          H       0.08860   0.64130   0.65950   0.0000000000
H          H       0.12110   0.68880   0.80870   0.0000000000
H          H       0.16880   0.73140   0.79620   0.0000000000
H          H       0.19620   0.68960   0.19570   0.0000000000
H          H       0.14830   0.64650   0.21550   0.0000000000
H          H       0.88080   0.48840   0.67380   0.0000000000
H          H       0.83350   0.47360   0.83460   0.0000000000
H          H       0.78970   0.47620   0.79000   0.0000000000
H          H       0.83320   0.54940   0.24460   0.0000000000
H          H       0.87690   0.54590   0.27890   0.0000000000
H          H       0.75410   0.47190   0.50200   0.0000000000
H          H       0.80830   0.56130   0.50470   0.0000000000
H          H       0.23440   0.71270   0.49840   0.0000000000
H          H       0.19920   0.76680   0.49970   0.0000000000
N          N       0.10327   0.61622   0.48399   0.0000000000
N          N       0.90646   0.52829   0.50271   0.0000000000
C          C       0.51280   0.51210   0.49990   0.0000000000
C          C       0.53988   0.51251   0.50490   0.0000000000
C          C       0.56244   0.53228   0.34244   0.0000000000
C          C       0.58801   0.53319   0.33941   0.0000000000
C          C       0.59164   0.51373   0.49854   0.0000000000
C          C       0.56939   0.49408   0.66411   0.0000000000
C          C       0.54430   0.49386   0.66926   0.0000000000
C          C       0.51628   0.54042   0.49561   0.0000000000
C          C       0.53760   0.56169   0.65823   0.0000000000
C          C       0.54195   0.58865   0.65958   0.0000000000
C          C       0.52437   0.59499   0.50175   0.0000000000
C          C       0.50309   0.57402   0.33750   0.0000000000
C          C       0.49939   0.54733   0.33287   0.0000000000
C          C       0.63998   0.53381   0.55210   0.0000000000
C          C       0.66577   0.53293   0.51497   0.0000000000
C          C       0.68984   0.55180   0.66325   0.0000000000
C          C       0.71352   0.54901   0.65631   0.0000000000
C          C       0.71343   0.52755   0.49768   0.0000000000
C          C       0.68956   0.50949   0.33960   0.0000000000
C          C       0.66599   0.51218   0.34626   0.0000000000
C          C       0.73782   0.52365   0.49820   0.0000000000
C          C       0.50808   0.62560   0.57804   0.0000000000
C          C       0.50969   0.65262   0.55503   0.0000000000
C          C       0.48983   0.65733   0.69008   0.0000000000
C          C       0.49124   0.68306   0.66573   0.0000000000
C          C       0.51301   0.70479   0.51288   0.0000000000
C          C       0.53293   0.69993   0.38009   0.0000000000
C          C       0.53115   0.67410   0.39611   0.0000000000
C          C       0.51583   0.73252   0.50250   0.0000000000
C          C       0.49264   0.73660   0.50173   0.0000000000
C          C       0.54280   0.75631   0.50044   0.0000000000
C          C       0.49623   0.76327   0.49794   0.0000000000
C          C       0.76500   0.54685   0.50045   0.0000000000
H          H       0.52690   0.47870   0.81350   0.0000000000
H          H       0.55930   0.54720   0.20330   0.0000000000
H          H       0.60500   0.54790   0.19190   0.0000000000
H          H       0.57250   0.47940   0.80560   0.0000000000
H          H       0.55100   0.55640   0.79900   0.0000000000
H          H       0.55830   0.60480   0.80250   0.0000000000
H          H       0.49010   0.57920   0.19460   0.0000000000
H          H       0.48290   0.53090   0.19090   0.0000000000
H          H       0.64130   0.55270   0.65950   0.0000000000
H          H       0.68880   0.56770   0.80870   0.0000000000
H          H       0.73140   0.56260   0.79620   0.0000000000
H          H       0.68960   0.49340   0.19570   0.0000000000
H          H       0.64650   0.49820   0.21550   0.0000000000
H          H       0.48840   0.60760   0.67380   0.0000000000
H          H       0.47360   0.64010   0.83460   0.0000000000
H          H       0.47620   0.68650   0.79000   0.0000000000
H          H       0.54940   0.71620   0.24460   0.0000000000
H          H       0.54590   0.66900   0.27890   0.0000000000
H          H       0.47190   0.71780   0.50200   0.0000000000
H          H       0.56130   0.75300   0.50470   0.0000000000
H          H       0.71270   0.47830   0.49840   0.0000000000
H          H       0.76680   0.56760   0.49970   0.0000000000
N          N       0.61622   0.51295   0.48399   0.0000000000
N          N       0.52829   0.62183   0.50271   0.0000000000
C          C       0.48790   0.00070   0.49990   0.0000000000
C          C       0.48749   0.02737   0.50490   0.0000000000
C          C       0.46772   0.03017   0.34244   0.0000000000
C          C       0.46681   0.05483   0.33941   0.0000000000
C          C       0.48627   0.07790   0.49854   0.0000000000
C          C       0.50592   0.07531   0.66411   0.0000000000
C          C       0.50614   0.05044   0.66926   0.0000000000
C          C       0.45958   0.97586   0.49561   0.0000000000
C          C       0.43831   0.97591   0.65823   0.0000000000
C          C       0.41135   0.95330   0.65958   0.0000000000
C          C       0.40501   0.92938   0.50175   0.0000000000
C          C       0.42598   0.92907   0.33750   0.0000000000
C          C       0.45267   0.95207   0.33287   0.0000000000
C          C       0.46619   0.10617   0.55210   0.0000000000
C          C       0.46707   0.13284   0.51497   0.0000000000
C          C       0.44820   0.13804   0.66325   0.0000000000
C          C       0.45099   0.16451   0.65631   0.0000000000
C          C       0.47245   0.18588   0.49768   0.0000000000
C          C       0.49051   0.18007   0.33960   0.0000000000
C          C       0.48782   0.15381   0.34626   0.0000000000
C          C       0.47634   0.21416   0.49820   0.0000000000
C          C       0.37440   0.88248   0.57804   0.0000000000
C          C       0.34738   0.85707   0.55503   0.0000000000
C          C       0.34267   0.83250   0.69008   0.0000000000
C          C       0.31694   0.80818   0.66573   0.0000000000
C          C       0.29520   0.80822   0.51288   0.0000000000
C          C       0.30007   0.83300   0.38009   0.0000000000
C          C       0.32590   0.85705   0.39611   0.0000000000
C          C       0.26748   0.78331   0.50250   0.0000000000
C          C       0.26340   0.75604   0.50173   0.0000000000
C          C       0.24369   0.78649   0.50044   0.0000000000
C          C       0.23673   0.73295   0.49794   0.0000000000
C          C       0.45315   0.21815   0.50045   0.0000000000
H          H       0.52130   0.04820   0.81350   0.0000000000
H          H       0.45280   0.01210   0.20330   0.0000000000
H          H       0.45210   0.05710   0.19190   0.0000000000
H          H       0.52060   0.09310   0.80560   0.0000000000
H          H       0.44360   0.99460   0.79900   0.0000000000
H          H       0.39520   0.95350   0.80250   0.0000000000
H          H       0.42080   0.91090   0.19460   0.0000000000
H          H       0.46910   0.95200   0.19090   0.0000000000
H          H       0.44730   0.08860   0.65950   0.0000000000
H          H       0.43230   0.12110   0.80870   0.0000000000
H          H       0.43740   0.16880   0.79620   0.0000000000
H          H       0.50660   0.19620   0.19570   0.0000000000
H          H       0.50180   0.14830   0.21550   0.0000000000
H          H       0.39240   0.88080   0.67380   0.0000000000
H          H       0.35990   0.83350   0.83460   0.0000000000
H          H       0.31350   0.78970   0.79000   0.0000000000
H          H       0.28380   0.83320   0.24460   0.0000000000
H          H       0.33100   0.87690   0.27890   0.0000000000
H          H       0.28220   0.75410   0.50200   0.0000000000
H          H       0.24700   0.80830   0.50470   0.0000000000
H          H       0.52170   0.23440   0.49840   0.0000000000
H          H       0.43240   0.19920   0.49970   0.0000000000
N          N       0.48705   0.10327   0.48399   0.0000000000
N          N       0.37817   0.90646   0.50271   0.0000000000
C          C       0.99930   0.48720   0.49990   0.0000000000
C          C       0.97263   0.46012   0.50490   0.0000000000
C          C       0.96983   0.43756   0.34244   0.0000000000
C          C       0.94517   0.41198   0.33941   0.0000000000
C          C       0.92210   0.40836   0.49854   0.0000000000
C          C       0.92469   0.43061   0.66411   0.0000000000
C          C       0.94956   0.45570   0.66926   0.0000000000
C          C       0.02414   0.48372   0.49561   0.0000000000
C          C       0.02409   0.46240   0.65823   0.0000000000
C          C       0.04670   0.45805   0.65958   0.0000000000
C          C       0.07062   0.47563   0.50175   0.0000000000
C          C       0.07093   0.49691   0.33750   0.0000000000
C          C       0.04793   0.50061   0.33287   0.0000000000
C          C       0.89383   0.36002   0.55210   0.0000000000
C          C       0.86716   0.33423   0.51497   0.0000000000
C          C       0.86196   0.31016   0.66325   0.0000000000
C          C       0.83549   0.28648   0.65631   0.0000000000
C          C       0.81412   0.28657   0.49768   0.0000000000
C          C       0.81993   0.31044   0.33960   0.0000000000
C          C       0.84619   0.33401   0.34626   0.0000000000
C          C       0.78584   0.26218   0.49820   0.0000000000
C          C       0.11752   0.49192   0.57804   0.0000000000
C          C       0.14293   0.49031   0.55503   0.0000000000
C          C       0.16750   0.51017   0.69008   0.0000000000
C          C       0.19182   0.50876   0.66573   0.0000000000
C          C       0.19178   0.48699   0.51288   0.0000000000
C          C       0.16699   0.46707   0.38009   0.0000000000
C          C       0.14295   0.46885   0.39611   0.0000000000
C          C       0.21669   0.48417   0.50250   0.0000000000
C          C       0.24396   0.50736   0.50173   0.0000000000
C          C       0.21351   0.45720   0.50044   0.0000000000
C          C       0.26705   0.50377   0.49794   0.0000000000
C          C       0.78185   0.23500   0.50045   0.0000000000
H          H       0.95180   0.47310   0.81350   0.0000000000
H          H       0.98790   0.44070   0.20330   0.0000000000
H          H       0.94290   0.39500   0.19190   0.0000000000
H          H       0.90690   0.42750   0.80560   0.0000000000
H          H       0.00540   0.44900   0.79900   0.0000000000
H          H       0.04650   0.44170   0.80250   0.0000000000
H          H       0.08910   0.50990   0.19460   0.0000000000
H          H       0.04800   0.51710   0.19090   0.0000000000
H          H       0.91140   0.35870   0.65950   0.0000000000
H          H       0.87890   0.31120   0.80870   0.0000000000
H          H       0.83120   0.26860   0.79620   0.0000000000
H          H       0.80380   0.31040   0.19570   0.0000000000
H          H       0.85170   0.35350   0.21550   0.0000000000
H          H       0.11920   0.51160   0.67380   0.0000000000
H          H       0.16650   0.52640   0.83460   0.0000000000
H          H       0.21030   0.52380   0.79000   0.0000000000
H          H       0.16680   0.45060   0.24460   0.0000000000
H          H       0.12310   0.45410   0.27890   0.0000000000
H          H       0.24590   0.52810   0.50200   0.0000000000
H          H       0.19170   0.43870   0.50470   0.0000000000
H          H       0.76560   0.28730   0.49840   0.0000000000
H          H       0.80080   0.23320   0.49970   0.0000000000
N          N       0.89672   0.38378   0.48399   0.0000000000
N          N       0.09354   0.47171   0.50271   0.0000000000
