data_crystal

_cell_length_a    45.88770
_cell_length_b    45.88770
_cell_length_c    7.95680
_cell_angle_alpha 90.00000
_cell_angle_beta  90.00000
_cell_angle_gamma 120.00000

_space_group_name_Hall 'P 1'
_space_group_name_H-M_alt  'P 1'

loop_
_symmetry_equiv_pos_as_xyz
'x,y,z' 

loop_
_atom_site_label
_atom_site_type_symbol
_atom_site_fract_x
_atom_site_fract_y
_atom_site_fract_z
H          H       0.57060   0.63330   0.11160 
H          H       0.58050   0.58450   0.11295 
H          H       0.36670   0.93730   0.11160 
H          H       0.41550   0.99600   0.11295 
H          H       0.06270   0.42940   0.11160 
H          H       0.00400   0.41950   0.11295 
H          H       0.42940   0.36670   0.11160 
H          H       0.41950   0.41550   0.11295 
H          H       0.63330   0.06270   0.11160 
H          H       0.58450   0.00400   0.11295 
H          H       0.93730   0.57060   0.11160 
H          H       0.99600   0.58050   0.11295 
H          H       0.42940   0.36670  -0.11160 
H          H       0.41950   0.41550  -0.11295 
H          H       0.63330   0.06270  -0.11160 
H          H       0.58450   0.00400  -0.11295 
H          H       0.93730   0.57060  -0.11160 
H          H       0.99600   0.58050  -0.11295 
H          H       0.57060   0.63330  -0.11160 
H          H       0.58050   0.58450  -0.11295 
H          H       0.36670   0.93730  -0.11160 
H          H       0.41550   0.99600  -0.11295 
H          H       0.06270   0.42940  -0.11160 
H          H       0.00400   0.41950  -0.11295 
H          H       0.42870   0.81670   0.00000 
H          H       0.41090   0.75820   0.00000 
H          H       0.32590   0.79430   0.00000 
H          H       0.30660   0.73550   0.00000 
H          H       0.37100   0.85390   0.00000 
H          H       0.41510   0.91080   0.00000 
H          H       0.39360   0.70780   0.00000 
H          H       0.56190   0.53190   0.00000 
H          H       0.60880   0.64280   0.00000 
C          C       0.46530   0.48200   0.00000 
C          C       0.48150   0.51760   0.00000 
C          C       0.45920   0.53320   0.00000 
C          C       0.51710   0.53580   0.00000 
C          C       0.45640   0.61030   0.00000 
C          C       0.36760   0.69000   0.00000 
C          C       0.34450   0.70190   0.00000 
C          C       0.80990   0.43120   0.00000 
C          C       0.73950   0.38310   0.00000 
C          C       0.79870   0.39670   0.00000 
C          C       0.78620   0.44170   0.00000 
C          C       0.76430   0.37310   0.00000 
C          C       0.75170   0.41830   0.00000 
C          C       0.57010   0.59020   0.00000 
C          C       0.58090   0.62720   0.00000 
O          O       0.42880   0.51410   0.00000 
O          O       0.53420   0.57120   0.00000 
N          N       0.47040   0.56710   0.00000 
N          N       0.44710   0.57860   0.00000 
H          H       0.18330   0.61200   0.00000 
H          H       0.24180   0.65270   0.00000 
H          H       0.20570   0.53160   0.00000 
H          H       0.26450   0.57110   0.00000 
H          H       0.14610   0.51710   0.00000 
H          H       0.08920   0.50430   0.00000 
H          H       0.29220   0.68580   0.00000 
H          H       0.46810   0.03000   0.00000 
H          H       0.35720   0.96600   0.00000 
C          C       0.51800   0.98330   0.00000 
C          C       0.48240   0.96390   0.00000 
C          C       0.46680   0.92600   0.00000 
C          C       0.46420   0.98130   0.00000 
C          C       0.38970   0.84610   0.00000 
C          C       0.31000   0.67760   0.00000 
C          C       0.29810   0.64260   0.00000 
C          C       0.56880   0.37870   0.00000 
C          C       0.61690   0.35640   0.00000 
C          C       0.60330   0.40200   0.00000 
C          C       0.55830   0.34450   0.00000 
C          C       0.62690   0.39120   0.00000 
C          C       0.58170   0.33340   0.00000 
C          C       0.40980   0.97990   0.00000 
C          C       0.37280   0.95370   0.00000 
O          O       0.48590   0.91470   0.00000 
O          O       0.42880   0.96300   0.00000 
N          N       0.43290   0.90330   0.00000 
N          N       0.42140   0.86850   0.00000 
H          H       0.38800   0.57130   0.00000 
H          H       0.34730   0.58910   0.00000 
H          H       0.46840   0.67410   0.00000 
H          H       0.42890   0.69340   0.00000 
H          H       0.48290   0.62900   0.00000 
H          H       0.49570   0.58490   0.00000 
H          H       0.31420   0.60640   0.00000 
H          H       0.97000   0.43810   0.00000 
H          H       0.03400   0.39120   0.00000 
C          C       0.01670   0.53470   0.00000 
C          C       0.03610   0.51850   0.00000 
C          C       0.07400   0.54080   0.00000 
C          C       0.01870   0.48290   0.00000 
C          C       0.15390   0.54360   0.00000 
C          C       0.32240   0.63240   0.00000 
C          C       0.35740   0.65550   0.00000 
C          C       0.62130   0.19010   0.00000 
C          C       0.64360   0.26050   0.00000 
C          C       0.59800   0.20130   0.00000 
C          C       0.65550   0.21380   0.00000 
C          C       0.60880   0.23570   0.00000 
C          C       0.66660   0.24830   0.00000 
C          C       0.02010   0.42990   0.00000 
C          C       0.04630   0.41910   0.00000 
O          O       0.08530   0.57120   0.00000 
O          O       0.03700   0.46580   0.00000 
N          N       0.09670   0.52960   0.00000 
N          N       0.13150   0.55290   0.00000 
H          H       0.57130   0.18330   0.00000 
H          H       0.58910   0.24180   0.00000 
H          H       0.67410   0.20570   0.00000 
H          H       0.69340   0.26450   0.00000 
H          H       0.62900   0.14610   0.00000 
H          H       0.58490   0.08920   0.00000 
H          H       0.60640   0.29220   0.00000 
H          H       0.43810   0.46810   0.00000 
H          H       0.39120   0.35720   0.00000 
C          C       0.53470   0.51800   0.00000 
C          C       0.51850   0.48240   0.00000 
C          C       0.54080   0.46680   0.00000 
C          C       0.48290   0.46420   0.00000 
C          C       0.54360   0.38970   0.00000 
C          C       0.63240   0.31000   0.00000 
C          C       0.65550   0.29810   0.00000 
C          C       0.19010   0.56880   0.00000 
C          C       0.26050   0.61690   0.00000 
C          C       0.20130   0.60330   0.00000 
C          C       0.21380   0.55830   0.00000 
C          C       0.23570   0.62690   0.00000 
C          C       0.24830   0.58170   0.00000 
C          C       0.42990   0.40980   0.00000 
C          C       0.41910   0.37280   0.00000 
O          O       0.57120   0.48590   0.00000 
O          O       0.46580   0.42880   0.00000 
N          N       0.52960   0.43290   0.00000 
N          N       0.55290   0.42140   0.00000 
H          H       0.81670   0.38800   0.00000 
H          H       0.75820   0.34730   0.00000 
H          H       0.79430   0.46840   0.00000 
H          H       0.73550   0.42890   0.00000 
H          H       0.85390   0.48290   0.00000 
H          H       0.91080   0.49570   0.00000 
H          H       0.70780   0.31420   0.00000 
H          H       0.53190   0.97000   0.00000 
H          H       0.64280   0.03400   0.00000 
C          C       0.48200   0.01670   0.00000 
C          C       0.51760   0.03610   0.00000 
C          C       0.53320   0.07400   0.00000 
C          C       0.53580   0.01870   0.00000 
C          C       0.61030   0.15390   0.00000 
C          C       0.69000   0.32240   0.00000 
C          C       0.70190   0.35740   0.00000 
C          C       0.43120   0.62130   0.00000 
C          C       0.38310   0.64360   0.00000 
C          C       0.39670   0.59800   0.00000 
C          C       0.44170   0.65550   0.00000 
C          C       0.37310   0.60880   0.00000 
C          C       0.41830   0.66660   0.00000 
C          C       0.59020   0.02010   0.00000 
C          C       0.62720   0.04630   0.00000 
O          O       0.51410   0.08530   0.00000 
O          O       0.57120   0.03700   0.00000 
N          N       0.56710   0.09670   0.00000 
N          N       0.57860   0.13150   0.00000 
H          H       0.61200   0.42870   0.00000 
H          H       0.65270   0.41090   0.00000 
H          H       0.53160   0.32590   0.00000 
H          H       0.57110   0.30660   0.00000 
H          H       0.51710   0.37100   0.00000 
H          H       0.50430   0.41510   0.00000 
H          H       0.68580   0.39360   0.00000 
H          H       0.03000   0.56190   0.00000 
H          H       0.96600   0.60880   0.00000 
C          C       0.98330   0.46530   0.00000 
C          C       0.96390   0.48150   0.00000 
C          C       0.92600   0.45920   0.00000 
C          C       0.98130   0.51710   0.00000 
C          C       0.84610   0.45640   0.00000 
C          C       0.67760   0.36760   0.00000 
C          C       0.64260   0.34450   0.00000 
C          C       0.37870   0.80990   0.00000 
C          C       0.35640   0.73950   0.00000 
C          C       0.40200   0.79870   0.00000 
C          C       0.34450   0.78620   0.00000 
C          C       0.39120   0.76430   0.00000 
C          C       0.33340   0.75170   0.00000 
C          C       0.97990   0.57010   0.00000 
C          C       0.95370   0.58090   0.00000 
O          O       0.91470   0.42880   0.00000 
O          O       0.96300   0.53420   0.00000 
N          N       0.90330   0.47040   0.00000 
N          N       0.86850   0.44710   0.00000 
H          H       0.57060   0.63330   0.61160 
H          H       0.58050   0.58450   0.61295 
H          H       0.36670   0.93730   0.61160 
H          H       0.41550   0.99600   0.61295 
H          H       0.06270   0.42940   0.61160 
H          H       0.00400   0.41950   0.61295 
H          H       0.42940   0.36670   0.61160 
H          H       0.41950   0.41550   0.61295 
H          H       0.63330   0.06270   0.61160 
H          H       0.58450   0.00400   0.61295 
H          H       0.93730   0.57060   0.61160 
H          H       0.99600   0.58050   0.61295 
H          H       0.42940   0.36670   0.38840 
H          H       0.41950   0.41550   0.38705 
H          H       0.63330   0.06270   0.38840 
H          H       0.58450   0.00400   0.38705 
H          H       0.93730   0.57060   0.38840 
H          H       0.99600   0.58050   0.38705 
H          H       0.57060   0.63330   0.38840 
H          H       0.58050   0.58450   0.38705 
H          H       0.36670   0.93730   0.38840 
H          H       0.41550   0.99600   0.38705 
H          H       0.06270   0.42940   0.38840 
H          H       0.00400   0.41950   0.38705 
H          H       0.42870   0.81670   0.50000 
H          H       0.41090   0.75820   0.50000 
H          H       0.32590   0.79430   0.50000 
H          H       0.30660   0.73550   0.50000 
H          H       0.37100   0.85390   0.50000 
H          H       0.41510   0.91080   0.50000 
H          H       0.39360   0.70780   0.50000 
H          H       0.56190   0.53190   0.50000 
H          H       0.60880   0.64280   0.50000 
C          C       0.46530   0.48200   0.50000 
C          C       0.48150   0.51760   0.50000 
C          C       0.45920   0.53320   0.50000 
C          C       0.51710   0.53580   0.50000 
C          C       0.45640   0.61030   0.50000 
C          C       0.36760   0.69000   0.50000 
C          C       0.34450   0.70190   0.50000 
C          C       0.80990   0.43120   0.50000 
C          C       0.73950   0.38310   0.50000 
C          C       0.79870   0.39670   0.50000 
C          C       0.78620   0.44170   0.50000 
C          C       0.76430   0.37310   0.50000 
C          C       0.75170   0.41830   0.50000 
C          C       0.57010   0.59020   0.50000 
C          C       0.58090   0.62720   0.50000 
O          O       0.42880   0.51410   0.50000 
O          O       0.53420   0.57120   0.50000 
N          N       0.47040   0.56710   0.50000 
N          N       0.44710   0.57860   0.50000 
H          H       0.18330   0.61200   0.50000 
H          H       0.24180   0.65270   0.50000 
H          H       0.20570   0.53160   0.50000 
H          H       0.26450   0.57110   0.50000 
H          H       0.14610   0.51710   0.50000 
H          H       0.08920   0.50430   0.50000 
H          H       0.29220   0.68580   0.50000 
H          H       0.46810   0.03000   0.50000 
H          H       0.35720   0.96600   0.50000 
C          C       0.51800   0.98330   0.50000 
C          C       0.48240   0.96390   0.50000 
C          C       0.46680   0.92600   0.50000 
C          C       0.46420   0.98130   0.50000 
C          C       0.38970   0.84610   0.50000 
C          C       0.31000   0.67760   0.50000 
C          C       0.29810   0.64260   0.50000 
C          C       0.56880   0.37870   0.50000 
C          C       0.61690   0.35640   0.50000 
C          C       0.60330   0.40200   0.50000 
C          C       0.55830   0.34450   0.50000 
C          C       0.62690   0.39120   0.50000 
C          C       0.58170   0.33340   0.50000 
C          C       0.40980   0.97990   0.50000 
C          C       0.37280   0.95370   0.50000 
O          O       0.48590   0.91470   0.50000 
O          O       0.42880   0.96300   0.50000 
N          N       0.43290   0.90330   0.50000 
N          N       0.42140   0.86850   0.50000 
H          H       0.38800   0.57130   0.50000 
H          H       0.34730   0.58910   0.50000 
H          H       0.46840   0.67410   0.50000 
H          H       0.42890   0.69340   0.50000 
H          H       0.48290   0.62900   0.50000 
H          H       0.49570   0.58490   0.50000 
H          H       0.31420   0.60640   0.50000 
H          H       0.97000   0.43810   0.50000 
H          H       0.03400   0.39120   0.50000 
C          C       0.01670   0.53470   0.50000 
C          C       0.03610   0.51850   0.50000 
C          C       0.07400   0.54080   0.50000 
C          C       0.01870   0.48290   0.50000 
C          C       0.15390   0.54360   0.50000 
C          C       0.32240   0.63240   0.50000 
C          C       0.35740   0.65550   0.50000 
C          C       0.62130   0.19010   0.50000 
C          C       0.64360   0.26050   0.50000 
C          C       0.59800   0.20130   0.50000 
C          C       0.65550   0.21380   0.50000 
C          C       0.60880   0.23570   0.50000 
C          C       0.66660   0.24830   0.50000 
C          C       0.02010   0.42990   0.50000 
C          C       0.04630   0.41910   0.50000 
O          O       0.08530   0.57120   0.50000 
O          O       0.03700   0.46580   0.50000 
N          N       0.09670   0.52960   0.50000 
N          N       0.13150   0.55290   0.50000 
H          H       0.57130   0.18330   0.50000 
H          H       0.58910   0.24180   0.50000 
H          H       0.67410   0.20570   0.50000 
H          H       0.69340   0.26450   0.50000 
H          H       0.62900   0.14610   0.50000 
H          H       0.58490   0.08920   0.50000 
H          H       0.60640   0.29220   0.50000 
H          H       0.43810   0.46810   0.50000 
H          H       0.39120   0.35720   0.50000 
C          C       0.53470   0.51800   0.50000 
C          C       0.51850   0.48240   0.50000 
C          C       0.54080   0.46680   0.50000 
C          C       0.48290   0.46420   0.50000 
C          C       0.54360   0.38970   0.50000 
C          C       0.63240   0.31000   0.50000 
C          C       0.65550   0.29810   0.50000 
C          C       0.19010   0.56880   0.50000 
C          C       0.26050   0.61690   0.50000 
C          C       0.20130   0.60330   0.50000 
C          C       0.21380   0.55830   0.50000 
C          C       0.23570   0.62690   0.50000 
C          C       0.24830   0.58170   0.50000 
C          C       0.42990   0.40980   0.50000 
C          C       0.41910   0.37280   0.50000 
O          O       0.57120   0.48590   0.50000 
O          O       0.46580   0.42880   0.50000 
N          N       0.52960   0.43290   0.50000 
N          N       0.55290   0.42140   0.50000 
H          H       0.81670   0.38800   0.50000 
H          H       0.75820   0.34730   0.50000 
H          H       0.79430   0.46840   0.50000 
H          H       0.73550   0.42890   0.50000 
H          H       0.85390   0.48290   0.50000 
H          H       0.91080   0.49570   0.50000 
H          H       0.70780   0.31420   0.50000 
H          H       0.53190   0.97000   0.50000 
H          H       0.64280   0.03400   0.50000 
C          C       0.48200   0.01670   0.50000 
C          C       0.51760   0.03610   0.50000 
C          C       0.53320   0.07400   0.50000 
C          C       0.53580   0.01870   0.50000 
C          C       0.61030   0.15390   0.50000 
C          C       0.69000   0.32240   0.50000 
C          C       0.70190   0.35740   0.50000 
C          C       0.43120   0.62130   0.50000 
C          C       0.38310   0.64360   0.50000 
C          C       0.39670   0.59800   0.50000 
C          C       0.44170   0.65550   0.50000 
C          C       0.37310   0.60880   0.50000 
C          C       0.41830   0.66660   0.50000 
C          C       0.59020   0.02010   0.50000 
C          C       0.62720   0.04630   0.50000 
O          O       0.51410   0.08530   0.50000 
O          O       0.57120   0.03700   0.50000 
N          N       0.56710   0.09670   0.50000 
N          N       0.57860   0.13150   0.50000 
H          H       0.61200   0.42870   0.50000 
H          H       0.65270   0.41090   0.50000 
H          H       0.53160   0.32590   0.50000 
H          H       0.57110   0.30660   0.50000 
H          H       0.51710   0.37100   0.50000 
H          H       0.50430   0.41510   0.50000 
H          H       0.68580   0.39360   0.50000 
H          H       0.03000   0.56190   0.50000 
H          H       0.96600   0.60880   0.50000 
C          C       0.98330   0.46530   0.50000 
C          C       0.96390   0.48150   0.50000 
C          C       0.92600   0.45920   0.50000 
C          C       0.98130   0.51710   0.50000 
C          C       0.84610   0.45640   0.50000 
C          C       0.67760   0.36760   0.50000 
C          C       0.64260   0.34450   0.50000 
C          C       0.37870   0.80990   0.50000 
C          C       0.35640   0.73950   0.50000 
C          C       0.40200   0.79870   0.50000 
C          C       0.34450   0.78620   0.50000 
C          C       0.39120   0.76430   0.50000 
C          C       0.33340   0.75170   0.50000 
C          C       0.97990   0.57010   0.50000 
C          C       0.95370   0.58090   0.50000 
O          O       0.91470   0.42880   0.50000 
O          O       0.96300   0.53420   0.50000 
N          N       0.90330   0.47040   0.50000 
N          N       0.86850   0.44710   0.50000 
