data_crystal

_cell_length_a    30.47600
_cell_length_b    30.47600
_cell_length_c    6.58110
_cell_angle_alpha 90.00000
_cell_angle_beta  90.00000
_cell_angle_gamma 120.00000

_space_group_name_Hall 'P 1'
_space_group_name_H-M_alt  'P 1'

loop_
_symmetry_equiv_pos_as_xyz
'x,y,z' 

loop_
_atom_site_label
_atom_site_type_symbol
_atom_site_fract_x
_atom_site_fract_y
_atom_site_fract_z
H          H       0.02830   0.29000   0.61400 
H          H       0.94580   0.27080   0.88860 
H          H       0.68180   0.03060   0.61150 
H          H       0.61180   0.04960   0.88750 
H          H       0.71000   0.73830   0.61400 
H          H       0.72920   0.67500   0.88860 
H          H       0.96940   0.65120   0.61150 
H          H       0.95040   0.56220   0.88750 
H          H       0.26170   0.97170   0.61400 
H          H       0.32500   0.05420   0.88860 
H          H       0.34880   0.31820   0.61150 
H          H       0.43780   0.38820   0.88750 
H          H       0.97170   0.71000   0.11400 
H          H       0.05420   0.72920   0.38860 
H          H       0.31820   0.96940   0.11150 
H          H       0.38820   0.95040   0.38750 
H          H       0.29000   0.26170   0.11400 
H          H       0.27080   0.32500   0.38860 
H          H       0.03060   0.34880   0.11150 
H          H       0.04960   0.43780   0.38750 
H          H       0.73830   0.02830   0.11400 
H          H       0.67500   0.94580   0.38860 
H          H       0.65120   0.68180   0.11150 
H          H       0.56220   0.61180   0.38750 
H          H       0.97170   0.71000   0.38600 
H          H       0.05420   0.72920   0.11140 
H          H       0.31820   0.96940   0.38850 
H          H       0.38820   0.95040   0.11250 
H          H       0.29000   0.26170   0.38600 
H          H       0.27080   0.32500   0.11140 
H          H       0.03060   0.34880   0.38850 
H          H       0.04960   0.43780   0.11250 
H          H       0.73830   0.02830   0.38600 
H          H       0.67500   0.94580   0.11140 
H          H       0.65120   0.68180   0.38850 
H          H       0.56220   0.61180   0.11250 
H          H       0.02830   0.29000   0.88600 
H          H       0.94580   0.27080   0.61140 
H          H       0.68180   0.03060   0.88850 
H          H       0.61180   0.04960   0.61250 
H          H       0.71000   0.73830   0.88600 
H          H       0.72920   0.67500   0.61140 
H          H       0.96940   0.65120   0.88850 
H          H       0.95040   0.56220   0.61250 
H          H       0.26170   0.97170   0.88600 
H          H       0.32500   0.05420   0.61140 
H          H       0.34880   0.31820   0.88850 
H          H       0.43780   0.38820   0.61250 
H          H       0.86440   0.24330   0.75000 
H          H       0.76370   0.05660   0.75000 
H          H       0.94300   0.14220   0.75000 
H          H       0.00670   0.11880   0.75000 
H          H       0.06840   0.08990   0.75000 
H          H       0.62790   0.20170   0.75000 
H          H       0.74730   0.33180   0.75000 
H          H       0.83840   0.52280   0.75000 
H          H       0.01190   0.23290   0.75000 
H          H       0.59490   0.99190   0.75000 
C          C       0.76250   0.42570   0.75000 
C          C       0.78670   0.55390   0.75000 
C          C       0.82140   0.61020   0.75000 
C          C       0.87500   0.63490   0.75000 
C          C       0.90260   0.68820   0.75000 
C          C       0.87860   0.71780   0.75000 
C          C       0.79750   0.63970   0.75000 
C          C       0.82470   0.69250   0.75000 
C          C       0.91270   0.77460   0.75000 
C          C       0.92050   0.89700   0.75000 
C          C       0.00840   0.26750   0.75000 
C          C       0.67500   0.04700   0.75000 
C          C       0.61990   0.03370   0.75000 
N          N       0.76090   0.46690   0.75000 
N          N       0.80140   0.51610   0.75000 
N          N       0.89560   0.81060   0.75000 
N          N       0.93190   0.86170   0.75000 
O          O       0.74100   0.53800   0.75000 
O          O       0.95850   0.79180   0.75000 
O          O       0.70660   0.10090   0.75000 
O          O       0.79940   0.72050   0.75000 
H          H       0.75670   0.62110   0.75000 
H          H       0.94340   0.70710   0.75000 
H          H       0.85780   0.80080   0.75000 
H          H       0.88120   0.88790   0.75000 
H          H       0.91010   0.97850   0.75000 
H          H       0.79830   0.42620   0.75000 
H          H       0.66820   0.41550   0.75000 
H          H       0.47720   0.31560   0.75000 
H          H       0.76710   0.77900   0.75000 
H          H       0.00810   0.60300   0.75000 
C          C       0.57430   0.33680   0.75000 
C          C       0.44610   0.23280   0.75000 
C          C       0.38980   0.21120   0.75000 
C          C       0.36510   0.24010   0.75000 
C          C       0.31180   0.21440   0.75000 
C          C       0.28220   0.16080   0.75000 
C          C       0.36030   0.15780   0.75000 
C          C       0.30750   0.13220   0.75000 
C          C       0.22540   0.13810   0.75000 
C          C       0.10300   0.02350   0.75000 
C          C       0.73250   0.74090   0.75000 
C          C       0.95300   0.62800   0.75000 
C          C       0.96630   0.58620   0.75000 
N          N       0.53310   0.29400   0.75000 
N          N       0.48390   0.28530   0.75000 
N          N       0.18940   0.08500   0.75000 
N          N       0.13830   0.07020   0.75000 
O          O       0.46200   0.20300   0.75000 
O          O       0.20820   0.16670   0.75000 
O          O       0.89910   0.60570   0.75000 
O          O       0.27950   0.07890   0.75000 
H          H       0.37890   0.13560   0.75000 
H          H       0.29290   0.23630   0.75000 
H          H       0.19920   0.05700   0.75000 
H          H       0.11210   0.99330   0.75000 
H          H       0.02150   0.93160   0.75000 
H          H       0.57380   0.37210   0.75000 
H          H       0.58450   0.25270   0.75000 
H          H       0.68440   0.16160   0.75000 
H          H       0.22100   0.98810   0.75000 
H          H       0.39700   0.40510   0.75000 
C          C       0.66320   0.23750   0.75000 
C          C       0.76720   0.21330   0.75000 
C          C       0.78880   0.17860   0.75000 
C          C       0.75990   0.12500   0.75000 
C          C       0.78560   0.09740   0.75000 
C          C       0.83920   0.12140   0.75000 
C          C       0.84220   0.20250   0.75000 
C          C       0.86780   0.17530   0.75000 
C          C       0.86190   0.08730   0.75000 
C          C       0.97650   0.07950   0.75000 
C          C       0.25910   0.99160   0.75000 
C          C       0.37200   0.32500   0.75000 
C          C       0.41380   0.38010   0.75000 
N          N       0.70600   0.23910   0.75000 
N          N       0.71470   0.19860   0.75000 
N          N       0.91500   0.10440   0.75000 
N          N       0.92980   0.06810   0.75000 
O          O       0.79700   0.25900   0.75000 
O          O       0.83330   0.04150   0.75000 
O          O       0.39430   0.29340   0.75000 
O          O       0.92110   0.20060   0.75000 
H          H       0.13560   0.75670   0.25000 
H          H       0.23630   0.94340   0.25000 
H          H       0.05700   0.85780   0.25000 
H          H       0.99330   0.88120   0.25000 
H          H       0.93160   0.91010   0.25000 
H          H       0.37210   0.79830   0.25000 
H          H       0.25270   0.66820   0.25000 
H          H       0.16160   0.47720   0.25000 
H          H       0.98810   0.76710   0.25000 
H          H       0.40510   0.00810   0.25000 
C          C       0.23750   0.57430   0.25000 
C          C       0.21330   0.44610   0.25000 
C          C       0.17860   0.38980   0.25000 
C          C       0.12500   0.36510   0.25000 
C          C       0.09740   0.31180   0.25000 
C          C       0.12140   0.28220   0.25000 
C          C       0.20250   0.36030   0.25000 
C          C       0.17530   0.30750   0.25000 
C          C       0.08730   0.22540   0.25000 
C          C       0.07950   0.10300   0.25000 
C          C       0.99160   0.73250   0.25000 
C          C       0.32500   0.95300   0.25000 
C          C       0.38010   0.96630   0.25000 
N          N       0.23910   0.53310   0.25000 
N          N       0.19860   0.48390   0.25000 
N          N       0.10440   0.18940   0.25000 
N          N       0.06810   0.13830   0.25000 
O          O       0.25900   0.46200   0.25000 
O          O       0.04150   0.20820   0.25000 
O          O       0.29340   0.89910   0.25000 
O          O       0.20060   0.27950   0.25000 
H          H       0.24330   0.37890   0.25000 
H          H       0.05660   0.29290   0.25000 
H          H       0.14220   0.19920   0.25000 
H          H       0.11880   0.11210   0.25000 
H          H       0.08990   0.02150   0.25000 
H          H       0.20170   0.57380   0.25000 
H          H       0.33180   0.58450   0.25000 
H          H       0.52280   0.68440   0.25000 
H          H       0.23290   0.22100   0.25000 
H          H       0.99190   0.39700   0.25000 
C          C       0.42570   0.66320   0.25000 
C          C       0.55390   0.76720   0.25000 
C          C       0.61020   0.78880   0.25000 
C          C       0.63490   0.75990   0.25000 
C          C       0.68820   0.78560   0.25000 
C          C       0.71780   0.83920   0.25000 
C          C       0.63970   0.84220   0.25000 
C          C       0.69250   0.86780   0.25000 
C          C       0.77460   0.86190   0.25000 
C          C       0.89700   0.97650   0.25000 
C          C       0.26750   0.25910   0.25000 
C          C       0.04700   0.37200   0.25000 
C          C       0.03370   0.41380   0.25000 
N          N       0.46690   0.70600   0.25000 
N          N       0.51610   0.71470   0.25000 
N          N       0.81060   0.91500   0.25000 
N          N       0.86170   0.92980   0.25000 
O          O       0.53800   0.79700   0.25000 
O          O       0.79180   0.83330   0.25000 
O          O       0.10090   0.39430   0.25000 
O          O       0.72050   0.92110   0.25000 
H          H       0.62110   0.86440   0.25000 
H          H       0.70710   0.76370   0.25000 
H          H       0.80080   0.94300   0.25000 
H          H       0.88790   0.00670   0.25000 
H          H       0.97850   0.06840   0.25000 
H          H       0.42620   0.62790   0.25000 
H          H       0.41550   0.74730   0.25000 
H          H       0.31560   0.83840   0.25000 
H          H       0.77900   0.01190   0.25000 
H          H       0.60300   0.59490   0.25000 
C          C       0.33680   0.76250   0.25000 
C          C       0.23280   0.78670   0.25000 
C          C       0.21120   0.82140   0.25000 
C          C       0.24010   0.87500   0.25000 
C          C       0.21440   0.90260   0.25000 
C          C       0.16080   0.87860   0.25000 
C          C       0.15780   0.79750   0.25000 
C          C       0.13220   0.82470   0.25000 
C          C       0.13810   0.91270   0.25000 
C          C       0.02350   0.92050   0.25000 
C          C       0.74090   0.00840   0.25000 
C          C       0.62800   0.67500   0.25000 
C          C       0.58620   0.61990   0.25000 
N          N       0.29400   0.76090   0.25000 
N          N       0.28530   0.80140   0.25000 
N          N       0.08500   0.89560   0.25000 
N          N       0.07020   0.93190   0.25000 
O          O       0.20300   0.74100   0.25000 
O          O       0.16670   0.95850   0.25000 
O          O       0.60570   0.70660   0.25000 
O          O       0.07890   0.79940   0.25000 
C          C       0.05060   0.01200   0.25000 
C          C       0.03880   0.05050   0.25000 
C          C       0.33210   0.62030   0.25000 
C          C       0.37850   0.66500   0.25000 
C          C       0.25450   0.30150   0.25000 
C          C       0.98800   0.03860   0.25000 
C          C       0.94950   0.98830   0.25000 
C          C       0.37970   0.71180   0.25000 
C          C       0.33500   0.71350   0.25000 
C          C       0.69850   0.95300   0.25000 
C          C       0.96140   0.94940   0.25000 
C          C       0.01170   0.96120   0.25000 
C          C       0.28820   0.66790   0.25000 
C          C       0.28650   0.62150   0.25000 
C          C       0.04700   0.74550   0.25000 
C          C       0.94940   0.98800   0.75000 
C          C       0.96120   0.94950   0.75000 
C          C       0.66790   0.37970   0.75000 
C          C       0.62150   0.33500   0.75000 
C          C       0.74550   0.69850   0.75000 
C          C       0.01200   0.96140   0.75000 
C          C       0.05050   0.01170   0.75000 
C          C       0.62030   0.28820   0.75000 
C          C       0.66500   0.28650   0.75000 
C          C       0.30150   0.04700   0.75000 
C          C       0.03860   0.05060   0.75000 
C          C       0.98830   0.03880   0.75000 
C          C       0.71180   0.33210   0.75000 
C          C       0.71350   0.37850   0.75000 
C          C       0.95300   0.25450   0.75000 
