data_crystal

_cell_length_a    45.34080
_cell_length_b    45.34080
_cell_length_c    6.45540
_cell_angle_alpha 90.00000
_cell_angle_beta  90.00000
_cell_angle_gamma 120.00000

_space_group_name_Hall 'P 1'
_space_group_name_H-M_alt  'P 1'

loop_
_symmetry_equiv_pos_as_xyz
'x,y,z' 

loop_
_atom_site_label
_atom_site_type_symbol
_atom_site_fract_x
_atom_site_fract_y
_atom_site_fract_z
H          H       0.24700   0.32900   0.39680 
H          H       0.23650   0.27030   0.10560 
H          H       0.66330   0.74920   0.39680 
H          H       0.60480   0.70100   0.39460 
H          H       0.67100   0.91800   0.39680 
H          H       0.72970   0.96620   0.10560 
H          H       0.25080   0.91410   0.39680 
H          H       0.29900   0.90380   0.39460 
H          H       0.08200   0.75300   0.39680 
H          H       0.03380   0.76350   0.10560 
H          H       0.08590   0.33670   0.39680 
H          H       0.09620   0.39520   0.39460 
H          H       0.75300   0.67100   0.89680 
H          H       0.76350   0.72970   0.60560 
H          H       0.33670   0.25080   0.89680 
H          H       0.39520   0.29900   0.89460 
H          H       0.32900   0.08200   0.89680 
H          H       0.27030   0.03380   0.60560 
H          H       0.74920   0.08590   0.89680 
H          H       0.70100   0.09620   0.89460 
H          H       0.91800   0.24700   0.89680 
H          H       0.96620   0.23650   0.60560 
H          H       0.91410   0.66330   0.89680 
H          H       0.90380   0.60480   0.89460 
H          H       0.75300   0.67100   0.60320 
H          H       0.76350   0.72970   0.89440 
H          H       0.33670   0.25080   0.60320 
H          H       0.39520   0.29900   0.60540 
H          H       0.32900   0.08200   0.60320 
H          H       0.27030   0.03380   0.89440 
H          H       0.74920   0.08590   0.60320 
H          H       0.70100   0.09620   0.60540 
H          H       0.91800   0.24700   0.60320 
H          H       0.96620   0.23650   0.89440 
H          H       0.91410   0.66330   0.60320 
H          H       0.90380   0.60480   0.60540 
H          H       0.24700   0.32900   0.10320 
H          H       0.23650   0.27030   0.39440 
H          H       0.66330   0.74920   0.10320 
H          H       0.60480   0.70100   0.10540 
H          H       0.67100   0.91800   0.10320 
H          H       0.72970   0.96620   0.39440 
H          H       0.25080   0.91410   0.10320 
H          H       0.29900   0.90380   0.10540 
H          H       0.08200   0.75300   0.10320 
H          H       0.03380   0.76350   0.39440 
H          H       0.08590   0.33670   0.10320 
H          H       0.09620   0.39520   0.10540 
H          H       0.59710   0.36040   0.75000 
H          H       0.53820   0.34080   0.75000 
H          H       0.64700   0.37490   0.75000 
H          H       0.51630   0.23820   0.75000 
H          H       0.57490   0.25630   0.75000 
H          H       0.30280   0.19810   0.75000 
H          H       0.36290   0.13470   0.75000 
H          H       0.14980   0.09490   0.75000 
H          H       0.09150   0.07730   0.75000 
H          H       0.01890   0.95880   0.75000 
H          H       0.47870   0.29560   0.75000 
O          O       0.36960   0.23770   0.75000 
O          O       0.29610   0.09520   0.75000 
O          O       0.76250   0.58180   0.75000 
O          O       0.90470   0.75250   0.75000 
N          N       0.78100   0.53580   0.75000 
N          N       0.80410   0.57050   0.75000 
N          N       0.86300   0.76380   0.75000 
N          N       0.88620   0.79850   0.75000 
C          C       0.79040   0.51340   0.75000 
C          C       0.79290   0.59320   0.75000 
C          C       0.81520   0.63110   0.75000 
C          C       0.85080   0.64850   0.75000 
C          C       0.86830   0.68400   0.75000 
C          C       0.85200   0.70320   0.75000 
C          C       0.79890   0.65030   0.75000 
C          C       0.81640   0.68580   0.75000 
C          C       0.87430   0.74110   0.75000 
C          C       0.87690   0.82090   0.75000 
C          C       0.07270   0.02280   0.75000 
C          C       0.08480   0.99970   0.75000 
C          C       0.11910   0.01070   0.75000 
C          C       0.14290   0.04490   0.75000 
C          C       0.13170   0.06820   0.75000 
C          C       0.09740   0.05750   0.75000 
C          C       0.73500   0.26920   0.75000 
C          C       0.68940   0.28250   0.75000 
C          C       0.71190   0.23470   0.75000 
C          C       0.67760   0.22400   0.75000 
C          C       0.72410   0.29270   0.75000 
C          C       0.66650   0.24740   0.75000 
H          H       0.63960   0.23670   0.75000 
H          H       0.65920   0.19740   0.75000 
H          H       0.62510   0.27210   0.75000 
H          H       0.76180   0.27810   0.75000 
H          H       0.74370   0.31860   0.75000 
H          H       0.80190   0.10470   0.75000 
H          H       0.86530   0.22820   0.75000 
H          H       0.90510   0.05490   0.75000 
H          H       0.92270   0.01420   0.75000 
H          H       0.04120   0.06010   0.75000 
H          H       0.70440   0.18310   0.75000 
O          O       0.76230   0.13190   0.75000 
O          O       0.90480   0.20090   0.75000 
O          O       0.41820   0.18070   0.75000 
O          O       0.24750   0.15220   0.75000 
N          N       0.46420   0.24520   0.75000 
N          N       0.42950   0.23360   0.75000 
N          N       0.23620   0.09920   0.75000 
N          N       0.20150   0.08770   0.75000 
C          C       0.48660   0.27700   0.75000 
C          C       0.40680   0.19970   0.75000 
C          C       0.36890   0.18410   0.75000 
C          C       0.35150   0.20230   0.75000 
C          C       0.31600   0.18430   0.75000 
C          C       0.29680   0.14880   0.75000 
C          C       0.34970   0.14860   0.75000 
C          C       0.31420   0.13060   0.75000 
C          C       0.25890   0.13320   0.75000 
C          C       0.17910   0.05600   0.75000 
C          C       0.97720   0.04990   0.75000 
C          C       0.00030   0.08510   0.75000 
C          C       0.98930   0.10840   0.75000 
C          C       0.95510   0.09800   0.75000 
C          C       0.93180   0.06350   0.75000 
C          C       0.94250   0.03990   0.75000 
C          C       0.73080   0.46580   0.75000 
C          C       0.71750   0.40690   0.75000 
C          C       0.76530   0.47720   0.75000 
C          C       0.77600   0.45360   0.75000 
C          C       0.70730   0.43140   0.75000 
C          C       0.75260   0.41910   0.75000 
H          H       0.76330   0.40290   0.75000 
H          H       0.80260   0.46180   0.75000 
H          H       0.72790   0.35300   0.75000 
H          H       0.72190   0.48370   0.75000 
H          H       0.68140   0.42510   0.75000 
H          H       0.89530   0.69720   0.75000 
H          H       0.77180   0.63710   0.75000 
H          H       0.94510   0.85020   0.75000 
H          H       0.98580   0.90850   0.75000 
H          H       0.93990   0.98110   0.75000 
H          H       0.81690   0.52130   0.75000 
O          O       0.86810   0.63040   0.75000 
O          O       0.79910   0.70390   0.75000 
O          O       0.81930   0.23750   0.75000 
O          O       0.84780   0.09530   0.75000 
N          N       0.75480   0.21900   0.75000 
N          N       0.76640   0.19590   0.75000 
N          N       0.90080   0.13700   0.75000 
N          N       0.91230   0.11380   0.75000 
C          C       0.72300   0.20960   0.75000 
C          C       0.80030   0.20710   0.75000 
C          C       0.81590   0.18480   0.75000 
C          C       0.79770   0.14920   0.75000 
C          C       0.81570   0.13170   0.75000 
C          C       0.85120   0.14800   0.75000 
C          C       0.85140   0.20110   0.75000 
C          C       0.86940   0.18360   0.75000 
C          C       0.86680   0.12570   0.75000 
C          C       0.94400   0.12310   0.75000 
C          C       0.95010   0.92730   0.75000 
C          C       0.91490   0.91520   0.75000 
C          C       0.89160   0.88090   0.75000 
C          C       0.90200   0.85710   0.75000 
C          C       0.93650   0.86830   0.75000 
C          C       0.96010   0.90260   0.75000 
C          C       0.53420   0.26500   0.75000 
C          C       0.59310   0.31060   0.75000 
C          C       0.52280   0.28810   0.75000 
C          C       0.54640   0.32240   0.75000 
C          C       0.56860   0.27590   0.75000 
C          C       0.58090   0.33350   0.75000 
H          H       0.40290   0.63960   0.25000 
H          H       0.46180   0.65920   0.25000 
H          H       0.35300   0.62510   0.25000 
H          H       0.48370   0.76180   0.25000 
H          H       0.42510   0.74370   0.25000 
H          H       0.69720   0.80190   0.25000 
H          H       0.63710   0.86530   0.25000 
H          H       0.85020   0.90510   0.25000 
H          H       0.90850   0.92270   0.25000 
H          H       0.98110   0.04120   0.25000 
H          H       0.52130   0.70440   0.25000 
O          O       0.63040   0.76230   0.25000 
O          O       0.70390   0.90480   0.25000 
O          O       0.23750   0.41820   0.25000 
O          O       0.09530   0.24750   0.25000 
N          N       0.21900   0.46420   0.25000 
N          N       0.19590   0.42950   0.25000 
N          N       0.13700   0.23620   0.25000 
N          N       0.11380   0.20150   0.25000 
C          C       0.20960   0.48660   0.25000 
C          C       0.20710   0.40680   0.25000 
C          C       0.18480   0.36890   0.25000 
C          C       0.14920   0.35150   0.25000 
C          C       0.13170   0.31600   0.25000 
C          C       0.14800   0.29680   0.25000 
C          C       0.20110   0.34970   0.25000 
C          C       0.18360   0.31420   0.25000 
C          C       0.12570   0.25890   0.25000 
C          C       0.12310   0.17910   0.25000 
C          C       0.92730   0.97720   0.25000 
C          C       0.91520   0.00030   0.25000 
C          C       0.88090   0.98930   0.25000 
C          C       0.85710   0.95510   0.25000 
C          C       0.86830   0.93180   0.25000 
C          C       0.90260   0.94250   0.25000 
C          C       0.26500   0.73080   0.25000 
C          C       0.31060   0.71750   0.25000 
C          C       0.28810   0.76530   0.25000 
C          C       0.32240   0.77600   0.25000 
C          C       0.27590   0.70730   0.25000 
C          C       0.33350   0.75260   0.25000 
H          H       0.36040   0.76330   0.25000 
H          H       0.34080   0.80260   0.25000 
H          H       0.37490   0.72790   0.25000 
H          H       0.23820   0.72190   0.25000 
H          H       0.25630   0.68140   0.25000 
H          H       0.19810   0.89530   0.25000 
H          H       0.13470   0.77180   0.25000 
H          H       0.09490   0.94510   0.25000 
H          H       0.07730   0.98580   0.25000 
H          H       0.95880   0.93990   0.25000 
H          H       0.29560   0.81690   0.25000 
O          O       0.23770   0.86810   0.25000 
O          O       0.09520   0.79910   0.25000 
O          O       0.58180   0.81930   0.25000 
O          O       0.75250   0.84780   0.25000 
N          N       0.53580   0.75480   0.25000 
N          N       0.57050   0.76640   0.25000 
N          N       0.76380   0.90080   0.25000 
N          N       0.79850   0.91230   0.25000 
C          C       0.51340   0.72300   0.25000 
C          C       0.59320   0.80030   0.25000 
C          C       0.63110   0.81590   0.25000 
C          C       0.64850   0.79770   0.25000 
C          C       0.68400   0.81570   0.25000 
C          C       0.70320   0.85120   0.25000 
C          C       0.65030   0.85140   0.25000 
C          C       0.68580   0.86940   0.25000 
C          C       0.74110   0.86680   0.25000 
C          C       0.82090   0.94400   0.25000 
C          C       0.02280   0.95010   0.25000 
C          C       0.99970   0.91490   0.25000 
C          C       0.01070   0.89160   0.25000 
C          C       0.04490   0.90200   0.25000 
C          C       0.06820   0.93650   0.25000 
C          C       0.05750   0.96010   0.25000 
C          C       0.26920   0.53420   0.25000 
C          C       0.28250   0.59310   0.25000 
C          C       0.23470   0.52280   0.25000 
C          C       0.22400   0.54640   0.25000 
C          C       0.29270   0.56860   0.25000 
C          C       0.24740   0.58090   0.25000 
H          H       0.23670   0.59710   0.25000 
H          H       0.19740   0.53820   0.25000 
H          H       0.27210   0.64700   0.25000 
H          H       0.27810   0.51630   0.25000 
H          H       0.31860   0.57490   0.25000 
H          H       0.10470   0.30280   0.25000 
H          H       0.22820   0.36290   0.25000 
H          H       0.05490   0.14980   0.25000 
H          H       0.01420   0.09150   0.25000 
H          H       0.06010   0.01890   0.25000 
H          H       0.18310   0.47870   0.25000 
O          O       0.13190   0.36960   0.25000 
O          O       0.20090   0.29610   0.25000 
O          O       0.18070   0.76250   0.25000 
O          O       0.15220   0.90470   0.25000 
N          N       0.24520   0.78100   0.25000 
N          N       0.23360   0.80410   0.25000 
N          N       0.09920   0.86300   0.25000 
N          N       0.08770   0.88620   0.25000 
C          C       0.27700   0.79040   0.25000 
C          C       0.19970   0.79290   0.25000 
C          C       0.18410   0.81520   0.25000 
C          C       0.20230   0.85080   0.25000 
C          C       0.18430   0.86830   0.25000 
C          C       0.14880   0.85200   0.25000 
C          C       0.14860   0.79890   0.25000 
C          C       0.13060   0.81640   0.25000 
C          C       0.13320   0.87430   0.25000 
C          C       0.05600   0.87690   0.25000 
C          C       0.04990   0.07270   0.25000 
C          C       0.08510   0.08480   0.25000 
C          C       0.10840   0.11910   0.25000 
C          C       0.09800   0.14290   0.25000 
C          C       0.06350   0.13170   0.25000 
C          C       0.03990   0.09740   0.25000 
C          C       0.46580   0.73500   0.25000 
C          C       0.40690   0.68940   0.25000 
C          C       0.47720   0.71190   0.25000 
C          C       0.45360   0.67760   0.25000 
C          C       0.43140   0.72410   0.25000 
C          C       0.41910   0.66650   0.25000 
H          H       0.09560   0.06850   0.25000 
H          H       0.13510   0.12720   0.25000 
H          H       0.16230   0.24390   0.25000 
H          H       0.17050   0.42180   0.25000 
H          H       0.27470   0.29830   0.25000 
H          H       0.63280   0.69080   0.25000 
H          H       0.14970   0.18690   0.25000 
C          C       0.03420   0.01070   0.25000 
C          C       0.02410   0.03520   0.25000 
C          C       0.34500   0.64310   0.25000 
C          C       0.36930   0.67750   0.25000 
C          C       0.24690   0.28640   0.25000 
C          C       0.23670   0.31310   0.25000 
C          C       0.62090   0.70670   0.25000 
C          C       0.64750   0.74360   0.25000 
H          H       0.93150   0.02710   0.25000 
H          H       0.87280   0.00790   0.25000 
H          H       0.75610   0.91840   0.25000 
H          H       0.57820   0.74870   0.25000 
H          H       0.70170   0.97640   0.25000 
H          H       0.30920   0.94200   0.25000 
H          H       0.81310   0.96280   0.25000 
C          C       0.98930   0.02350   0.25000 
C          C       0.96480   0.98890   0.25000 
C          C       0.35690   0.70190   0.25000 
C          C       0.32250   0.69180   0.25000 
C          C       0.71360   0.96050   0.25000 
C          C       0.68690   0.92360   0.25000 
C          C       0.29330   0.91420   0.25000 
C          C       0.25640   0.90390   0.25000 
H          H       0.97290   0.90440   0.25000 
H          H       0.99210   0.86490   0.25000 
H          H       0.08160   0.83770   0.25000 
H          H       0.25130   0.82950   0.25000 
H          H       0.02360   0.72530   0.25000 
H          H       0.05800   0.36720   0.25000 
H          H       0.03720   0.85030   0.25000 
C          C       0.97650   0.96580   0.25000 
C          C       0.01110   0.97590   0.25000 
C          C       0.29810   0.65500   0.25000 
C          C       0.30820   0.63070   0.25000 
C          C       0.03950   0.75310   0.25000 
C          C       0.07640   0.76330   0.25000 
C          C       0.08580   0.37910   0.25000 
C          C       0.09610   0.35250   0.25000 
H          H       0.90440   0.93150   0.75000 
H          H       0.86490   0.87280   0.75000 
H          H       0.83770   0.75610   0.75000 
H          H       0.82950   0.57820   0.75000 
H          H       0.72530   0.70170   0.75000 
H          H       0.36720   0.30920   0.75000 
H          H       0.85030   0.81310   0.75000 
C          C       0.96580   0.98930   0.75000 
C          C       0.97590   0.96480   0.75000 
C          C       0.65500   0.35690   0.75000 
C          C       0.63070   0.32250   0.75000 
C          C       0.75310   0.71360   0.75000 
C          C       0.76330   0.68690   0.75000 
C          C       0.37910   0.29330   0.75000 
C          C       0.35250   0.25640   0.75000 
H          H       0.06850   0.97290   0.75000 
H          H       0.12720   0.99210   0.75000 
H          H       0.24390   0.08160   0.75000 
H          H       0.42180   0.25130   0.75000 
H          H       0.29830   0.02360   0.75000 
H          H       0.69080   0.05800   0.75000 
H          H       0.18690   0.03720   0.75000 
C          C       0.01070   0.97650   0.75000 
C          C       0.03520   0.01110   0.75000 
C          C       0.64310   0.29810   0.75000 
C          C       0.67750   0.30820   0.75000 
C          C       0.28640   0.03950   0.75000 
C          C       0.31310   0.07640   0.75000 
C          C       0.70670   0.08580   0.75000 
C          C       0.74360   0.09610   0.75000 
H          H       0.02710   0.09560   0.75000 
H          H       0.00790   0.13510   0.75000 
H          H       0.91840   0.16230   0.75000 
H          H       0.74870   0.17050   0.75000 
H          H       0.97640   0.27470   0.75000 
H          H       0.94200   0.63280   0.75000 
H          H       0.96280   0.14970   0.75000 
C          C       0.02350   0.03420   0.75000 
C          C       0.98890   0.02410   0.75000 
C          C       0.70190   0.34500   0.75000 
C          C       0.69180   0.36930   0.75000 
C          C       0.96050   0.24690   0.75000 
C          C       0.92360   0.23670   0.75000 
C          C       0.91420   0.62090   0.75000 
C          C       0.90390   0.64750   0.75000 
