data_crystal

_cell_length_a    29.97680
_cell_length_b    29.97680
_cell_length_c    8.10000
_cell_angle_alpha 90.00000
_cell_angle_beta  90.00000
_cell_angle_gamma 120.00000

_space_group_name_Hall 'P 1'
_space_group_name_H-M_alt  'P 1'

loop_
_symmetry_equiv_pos_as_xyz
'x,y,z' 

loop_
_atom_site_label
_atom_site_type_symbol
_atom_site_fract_x
_atom_site_fract_y
_atom_site_fract_z
H          H       0.33610   0.32400  -0.10910 
H          H       0.42470   0.34720   0.11220 
H          H       0.67600   0.01210  -0.10910 
H          H       0.65280   0.07750   0.11220 
H          H       0.98790   0.66390  -0.10910 
H          H       0.92250   0.57530   0.11220 
H          H       0.66390   0.67600  -0.10910 
H          H       0.57530   0.65280   0.11220 
H          H       0.32400   0.98790  -0.10910 
H          H       0.34720   0.92250   0.11220 
H          H       0.01210   0.33610  -0.10910 
H          H       0.07750   0.42470   0.11220 
H          H       0.66390   0.67600   0.10910 
H          H       0.57530   0.65280  -0.11220 
H          H       0.32400   0.98790   0.10910 
H          H       0.34720   0.92250  -0.11220 
H          H       0.01210   0.33610   0.10910 
H          H       0.07750   0.42470  -0.11220 
H          H       0.33610   0.32400   0.10910 
H          H       0.42470   0.34720  -0.11220 
H          H       0.67600   0.01210   0.10910 
H          H       0.65280   0.07750  -0.11220 
H          H       0.98790   0.66390   0.10910 
H          H       0.92250   0.57530  -0.11220 
H          H       0.65430   0.72140   0.00000 
H          H       0.58800   0.52490   0.00000 
H          H       0.39080   0.52620   0.00000 
H          H       0.26710   0.57760   0.00000 
H          H       0.32950   0.55060   0.00000 
C          C       0.38350   0.67950   0.00000 
C          C       0.37100   0.71720   0.00000 
C          C       0.46150   0.44890   0.00000 
C          C       0.45120   0.48800   0.00000 
C          C       0.46880   0.57680   0.00000 
C          C       0.48730   0.53950   0.00000 
C          C       0.35900   0.58910   0.00000 
C          C       0.59100   0.64610   0.00000 
O          O       0.58400   0.59730   0.00000 
C          C       0.64680   0.68240   0.00000 
N          N       0.41910   0.56300   0.00000 
N          N       0.40520   0.59980   0.00000 
O          O       0.49800   0.62100   0.00000 
H          H       0.27860   0.93290   0.00000 
H          H       0.47510   0.06310   0.00000 
H          H       0.47380   0.86460   0.00000 
H          H       0.42240   0.68950   0.00000 
H          H       0.44940   0.77890   0.00000 
C          C       0.32050   0.70400   0.00000 
C          C       0.28280   0.65380   0.00000 
C          C       0.55110   0.01260   0.00000 
C          C       0.51200   0.96320   0.00000 
C          C       0.42320   0.89200   0.00000 
C          C       0.46050   0.94780   0.00000 
C          C       0.41090   0.76990   0.00000 
C          C       0.35390   0.94490   0.00000 
O          O       0.40270   0.98670   0.00000 
C          C       0.31760   0.96440   0.00000 
N          N       0.43700   0.85610   0.00000 
N          N       0.40020   0.80540   0.00000 
O          O       0.37900   0.87700   0.00000 
H          H       0.06710   0.34570   0.00000 
H          H       0.93690   0.41200   0.00000 
H          H       0.13540   0.60920   0.00000 
H          H       0.31050   0.73290   0.00000 
H          H       0.22110   0.67050   0.00000 
C          C       0.29600   0.61650   0.00000 
C          C       0.34620   0.62900   0.00000 
C          C       0.98740   0.53850   0.00000 
C          C       0.03680   0.54880   0.00000 
C          C       0.10800   0.53120   0.00000 
C          C       0.05220   0.51270   0.00000 
C          C       0.23010   0.64100   0.00000 
C          C       0.05510   0.40900   0.00000 
O          O       0.01330   0.41600   0.00000 
C          C       0.03560   0.35320   0.00000 
N          N       0.14390   0.58090   0.00000 
N          N       0.19460   0.59480   0.00000 
O          O       0.12300   0.50200   0.00000 
H          H       0.34570   0.27860   0.00000 
H          H       0.41200   0.47510   0.00000 
H          H       0.60920   0.47380   0.00000 
H          H       0.73290   0.42240   0.00000 
H          H       0.67050   0.44940   0.00000 
C          C       0.61650   0.32050   0.00000 
C          C       0.62900   0.28280   0.00000 
C          C       0.53850   0.55110   0.00000 
C          C       0.54880   0.51200   0.00000 
C          C       0.53120   0.42320   0.00000 
C          C       0.51270   0.46050   0.00000 
C          C       0.64100   0.41090   0.00000 
C          C       0.40900   0.35390   0.00000 
O          O       0.41600   0.40270   0.00000 
C          C       0.35320   0.31760   0.00000 
N          N       0.58090   0.43700   0.00000 
N          N       0.59480   0.40020   0.00000 
O          O       0.50200   0.37900   0.00000 
H          H       0.72140   0.06710   0.00000 
H          H       0.52490   0.93690   0.00000 
H          H       0.52620   0.13540   0.00000 
H          H       0.57760   0.31050   0.00000 
H          H       0.55060   0.22110   0.00000 
C          C       0.67950   0.29600   0.00000 
C          C       0.71720   0.34620   0.00000 
C          C       0.44890   0.98740   0.00000 
C          C       0.48800   0.03680   0.00000 
C          C       0.57680   0.10800   0.00000 
C          C       0.53950   0.05220   0.00000 
C          C       0.58910   0.23010   0.00000 
C          C       0.64610   0.05510   0.00000 
O          O       0.59730   0.01330   0.00000 
C          C       0.68240   0.03560   0.00000 
N          N       0.56300   0.14390   0.00000 
N          N       0.59980   0.19460   0.00000 
O          O       0.62100   0.12300   0.00000 
H          H       0.93290   0.65430   0.00000 
H          H       0.06310   0.58800   0.00000 
H          H       0.86460   0.39080   0.00000 
H          H       0.68950   0.26710   0.00000 
H          H       0.77890   0.32950   0.00000 
C          C       0.70400   0.38350   0.00000 
C          C       0.65380   0.37100   0.00000 
C          C       0.01260   0.46150   0.00000 
C          C       0.96320   0.45120   0.00000 
C          C       0.89200   0.46880   0.00000 
C          C       0.94780   0.48730   0.00000 
C          C       0.76990   0.35900   0.00000 
C          C       0.94490   0.59100   0.00000 
O          O       0.98670   0.58400   0.00000 
C          C       0.96440   0.64680   0.00000 
N          N       0.85610   0.41910   0.00000 
N          N       0.80540   0.40520   0.00000 
O          O       0.87700   0.49800   0.00000 
H          H       0.33610   0.32400   0.39090 
H          H       0.42470   0.34720   0.61220 
H          H       0.67600   0.01210   0.39090 
H          H       0.65280   0.07750   0.61220 
H          H       0.98790   0.66390   0.39090 
H          H       0.92250   0.57530   0.61220 
H          H       0.66390   0.67600   0.39090 
H          H       0.57530   0.65280   0.61220 
H          H       0.32400   0.98790   0.39090 
H          H       0.34720   0.92250   0.61220 
H          H       0.01210   0.33610   0.39090 
H          H       0.07750   0.42470   0.61220 
H          H       0.66390   0.67600   0.60910 
H          H       0.57530   0.65280   0.38780 
H          H       0.32400   0.98790   0.60910 
H          H       0.34720   0.92250   0.38780 
H          H       0.01210   0.33610   0.60910 
H          H       0.07750   0.42470   0.38780 
H          H       0.33610   0.32400   0.60910 
H          H       0.42470   0.34720   0.38780 
H          H       0.67600   0.01210   0.60910 
H          H       0.65280   0.07750   0.38780 
H          H       0.98790   0.66390   0.60910 
H          H       0.92250   0.57530   0.38780 
H          H       0.65430   0.72140   0.50000 
H          H       0.58800   0.52490   0.50000 
H          H       0.39080   0.52620   0.50000 
H          H       0.26710   0.57760   0.50000 
H          H       0.32950   0.55060   0.50000 
C          C       0.38350   0.67950   0.50000 
C          C       0.37100   0.71720   0.50000 
C          C       0.46150   0.44890   0.50000 
C          C       0.45120   0.48800   0.50000 
C          C       0.46880   0.57680   0.50000 
C          C       0.48730   0.53950   0.50000 
C          C       0.35900   0.58910   0.50000 
C          C       0.59100   0.64610   0.50000 
O          O       0.58400   0.59730   0.50000 
C          C       0.64680   0.68240   0.50000 
N          N       0.41910   0.56300   0.50000 
N          N       0.40520   0.59980   0.50000 
O          O       0.49800   0.62100   0.50000 
H          H       0.27860   0.93290   0.50000 
H          H       0.47510   0.06310   0.50000 
H          H       0.47380   0.86460   0.50000 
H          H       0.42240   0.68950   0.50000 
H          H       0.44940   0.77890   0.50000 
C          C       0.32050   0.70400   0.50000 
C          C       0.28280   0.65380   0.50000 
C          C       0.55110   0.01260   0.50000 
C          C       0.51200   0.96320   0.50000 
C          C       0.42320   0.89200   0.50000 
C          C       0.46050   0.94780   0.50000 
C          C       0.41090   0.76990   0.50000 
C          C       0.35390   0.94490   0.50000 
O          O       0.40270   0.98670   0.50000 
C          C       0.31760   0.96440   0.50000 
N          N       0.43700   0.85610   0.50000 
N          N       0.40020   0.80540   0.50000 
O          O       0.37900   0.87700   0.50000 
H          H       0.06710   0.34570   0.50000 
H          H       0.93690   0.41200   0.50000 
H          H       0.13540   0.60920   0.50000 
H          H       0.31050   0.73290   0.50000 
H          H       0.22110   0.67050   0.50000 
C          C       0.29600   0.61650   0.50000 
C          C       0.34620   0.62900   0.50000 
C          C       0.98740   0.53850   0.50000 
C          C       0.03680   0.54880   0.50000 
C          C       0.10800   0.53120   0.50000 
C          C       0.05220   0.51270   0.50000 
C          C       0.23010   0.64100   0.50000 
C          C       0.05510   0.40900   0.50000 
O          O       0.01330   0.41600   0.50000 
C          C       0.03560   0.35320   0.50000 
N          N       0.14390   0.58090   0.50000 
N          N       0.19460   0.59480   0.50000 
O          O       0.12300   0.50200   0.50000 
H          H       0.34570   0.27860   0.50000 
H          H       0.41200   0.47510   0.50000 
H          H       0.60920   0.47380   0.50000 
H          H       0.73290   0.42240   0.50000 
H          H       0.67050   0.44940   0.50000 
C          C       0.61650   0.32050   0.50000 
C          C       0.62900   0.28280   0.50000 
C          C       0.53850   0.55110   0.50000 
C          C       0.54880   0.51200   0.50000 
C          C       0.53120   0.42320   0.50000 
C          C       0.51270   0.46050   0.50000 
C          C       0.64100   0.41090   0.50000 
C          C       0.40900   0.35390   0.50000 
O          O       0.41600   0.40270   0.50000 
C          C       0.35320   0.31760   0.50000 
N          N       0.58090   0.43700   0.50000 
N          N       0.59480   0.40020   0.50000 
O          O       0.50200   0.37900   0.50000 
H          H       0.72140   0.06710   0.50000 
H          H       0.52490   0.93690   0.50000 
H          H       0.52620   0.13540   0.50000 
H          H       0.57760   0.31050   0.50000 
H          H       0.55060   0.22110   0.50000 
C          C       0.67950   0.29600   0.50000 
C          C       0.71720   0.34620   0.50000 
C          C       0.44890   0.98740   0.50000 
C          C       0.48800   0.03680   0.50000 
C          C       0.57680   0.10800   0.50000 
C          C       0.53950   0.05220   0.50000 
C          C       0.58910   0.23010   0.50000 
C          C       0.64610   0.05510   0.50000 
O          O       0.59730   0.01330   0.50000 
C          C       0.68240   0.03560   0.50000 
N          N       0.56300   0.14390   0.50000 
N          N       0.59980   0.19460   0.50000 
O          O       0.62100   0.12300   0.50000 
H          H       0.93290   0.65430   0.50000 
H          H       0.06310   0.58800   0.50000 
H          H       0.86460   0.39080   0.50000 
H          H       0.68950   0.26710   0.50000 
H          H       0.77890   0.32950   0.50000 
C          C       0.70400   0.38350   0.50000 
C          C       0.65380   0.37100   0.50000 
C          C       0.01260   0.46150   0.50000 
C          C       0.96320   0.45120   0.50000 
C          C       0.89200   0.46880   0.50000 
C          C       0.94780   0.48730   0.50000 
C          C       0.76990   0.35900   0.50000 
C          C       0.94490   0.59100   0.50000 
O          O       0.98670   0.58400   0.50000 
C          C       0.96440   0.64680   0.50000 
N          N       0.85610   0.41910   0.50000 
N          N       0.80540   0.40520   0.50000 
O          O       0.87700   0.49800   0.50000 
