data_crystal
 
_cell_length_a    46.49160
_cell_length_b    46.49160
_cell_length_c    3.40490
_cell_angle_alpha 90.00000
_cell_angle_beta  90.00000
_cell_angle_gamma 90.00000
 
_symmetry_space_group_name_Hall 'P 1'
_symmetry_space_group_name_H-M  'P 1'
 
loop_
_symmetry_equiv_pos_as_xyz
 'x,y,z' 
 
loop_
_atom_site_label
_atom_site_type_symbol
_atom_site_fract_x
_atom_site_fract_y
_atom_site_fract_z
_atom_site_charge
N          N       0.50471   0.53960   0.50000   0.0000000000
N          N       0.55802   0.54447   0.50000   0.0000000000
C          C       0.56271   0.51588   0.50000   0.0000000000
C          C       0.58972   0.50287   0.50000   0.0000000000
C          C       0.58571   0.47334   0.50000   0.0000000000
C          C       0.55615   0.46834   0.50000   0.0000000000
C          C       0.60929   0.45410   0.50001   0.0000000000
C          C       0.63721   0.46625   0.50001   0.0000000000
C          C       0.64100   0.49584   0.50001   0.0000000000
C          C       0.61745   0.51499   0.50001   0.0000000000
O          O       0.66984   0.50366   0.50001   0.0000000000
B          B       0.68416   0.47537   0.50001   0.0000000000
O          O       0.66340   0.45130   0.50001   0.0000000000
N          N       0.94366   0.54519   0.49998   0.0000000000
C          C       0.93784   0.51490   0.49998   0.0000000000
N          N       0.95860   0.49422   0.49999   0.0000000000
C          C       0.94303   0.46881   0.50000   0.0000000000
C          C       0.91361   0.47319   0.49999   0.0000000000
C          C       0.91015   0.50262   0.49998   0.0000000000
C          C       0.88245   0.51486   0.49996   0.0000000000
C          C       0.85870   0.49572   0.49997   0.0000000000
C          C       0.86224   0.46602   0.49998   0.0000000000
C          C       0.88993   0.45345   0.49999   0.0000000000
C          C       0.98285   0.43603   0.50000   0.0000000000
C          C       0.98246   0.37991   0.50000   0.0000000000
C          C       0.00168   0.35704   0.50000   0.0000000000
N          N       0.95469   0.44059   0.50000   0.0000000000
O          O       0.82985   0.50364   0.49996   0.0000000000
B          B       0.81535   0.47539   0.49998   0.0000000000
C          C       0.78079   0.47276   0.49999   0.0000000000
C          C       0.76463   0.44685   0.50000   0.0000000000
C          C       0.73461   0.49858   0.50000   0.0000000000
C          C       0.76488   0.49857   0.50000   0.0000000000
O          O       0.83596   0.45125   0.49999   0.0000000000
H          H       0.60617   0.43104   0.50001   0.0000000000
H          H       0.62065   0.53804   0.50001   0.0000000000
H          H       0.89196   0.42953   0.50000   0.0000000000
H          H       0.87938   0.53793   0.49995   0.0000000000
H          H       0.72370   0.51916   0.50001   0.0000000000
H          H       0.77581   0.51915   0.49999   0.0000000000
N          N       0.72361   0.42019   0.50001   0.0000000000
N          N       0.77566   0.42010   0.50000   0.0000000000
S          S       0.74956   0.39436   0.50000   0.0000000000
C          C       0.55575   0.02958   0.50000   0.0000000000
C          C       0.58679   0.02437   0.50000   0.0000000000
C          C       0.63694   0.03056   0.50000   0.0000000000
C          C       0.61009   0.04364   0.50000   0.0000000000
H          H       0.60719   0.06682   0.50000   0.0000000000
N          N       0.54099   0.00332   0.50000   0.0000000000
N          N       0.95468   0.05578   0.50000   0.0000000000
C          C       0.94338   0.02958   0.50000   0.0000000000
N          N       0.95815   0.00333   0.50000   0.0000000000
C          C       0.59052   0.99410   0.50000   0.0000000000
O          O       0.67043   0.99417   0.50000   0.0000000000
B          B       0.68501   0.02135   0.50000   0.0000000000
O          O       0.66428   0.04384   0.50000   0.0000000000
C          C       0.91235   0.02436   0.50000   0.0000000000
C          C       0.90862   0.99409   0.50000   0.0000000000
C          C       0.93745   0.98148   0.50000   0.0000000000
C          C       0.88134   0.98104   0.50000   0.0000000000
C          C       0.85845   0.00023   0.50000   0.0000000000
C          C       0.86220   0.03055   0.50000   0.0000000000
C          C       0.88904   0.04362   0.50000   0.0000000000
O          O       0.83484   0.04382   0.50000   0.0000000000
B          B       0.81413   0.02132   0.50000   0.0000000000
C          C       0.78105   0.02332   0.50000   0.0000000000
C          C       0.76500   0.99817   0.50000   0.0000000000
C          C       0.73412   0.99817   0.50000   0.0000000000
C          C       0.71808   0.02332   0.50000   0.0000000000
C          C       0.73368   0.05030   0.50000   0.0000000000
O          O       0.82870   0.99415   0.50000   0.0000000000
H          H       0.62053   0.95785   0.50000   0.0000000000
H          H       0.87861   0.95783   0.50000   0.0000000000
H          H       0.89193   0.06681   0.50000   0.0000000000
H          H       0.72282   0.97762   0.50000   0.0000000000
H          H       0.77632   0.97762   0.50000   0.0000000000
N          N       0.72114   0.07619   0.50000   0.0000000000
N          N       0.77798   0.07619   0.50000   0.0000000000
S          S       0.74956   0.10196   0.50000   0.0000000000
C          C       0.71868   0.47278   0.50001   0.0000000000
C          C       0.73476   0.44689   0.50000   0.0000000000
C          C       0.76545   0.05030   0.50000   0.0000000000
N          N       0.49529   0.46040   0.50000   0.0000000000
N          N       0.44285   0.45695   0.50000   0.0000000000
C          C       0.43828   0.48512   0.50000   0.0000000000
C          C       0.40945   0.49773   0.50000   0.0000000000
C          C       0.41320   0.52801   0.50000   0.0000000000
C          C       0.44424   0.53321   0.50000   0.0000000000
C          C       0.38991   0.54728   0.50000   0.0000000000
C          C       0.36306   0.53422   0.50000   0.0000000000
C          C       0.35930   0.50390   0.50000   0.0000000000
C          C       0.38218   0.48470   0.50000   0.0000000000
O          O       0.32956   0.49784   0.50000   0.0000000000
B          B       0.31498   0.52502   0.50000   0.0000000000
O          O       0.33573   0.54750   0.50000   0.0000000000
N          N       0.05802   0.45695   0.50000   0.0000000000
C          C       0.06259   0.48512   0.50000   0.0000000000
N          N       0.04186   0.50697   0.50000   0.0000000000
C          C       0.05663   0.53321   0.50000   0.0000000000
C          C       0.08766   0.52801   0.50000   0.0000000000
C          C       0.09141   0.49774   0.50000   0.0000000000
C          C       0.11870   0.48471   0.50000   0.0000000000
C          C       0.14157   0.50391   0.50000   0.0000000000
C          C       0.13781   0.53423   0.50000   0.0000000000
C          C       0.11096   0.54729   0.50000   0.0000000000
C          C       0.01715   0.56397   0.50000   0.0000000000
C          C       0.01754   0.62009   0.50000   0.0000000000
C          C       0.99813   0.64237   0.50000   0.0000000000
N          N       0.04531   0.55941   0.50000   0.0000000000
O          O       0.17131   0.49786   0.50000   0.0000000000
B          B       0.18588   0.52503   0.50000   0.0000000000
C          C       0.21895   0.52701   0.50000   0.0000000000
C          C       0.23455   0.55398   0.50000   0.0000000000
C          C       0.26587   0.50184   0.50000   0.0000000000
C          C       0.23499   0.50185   0.50000   0.0000000000
O          O       0.16514   0.54752   0.50000   0.0000000000
H          H       0.39281   0.57046   0.50000   0.0000000000
H          H       0.37942   0.46150   0.50000   0.0000000000
H          H       0.10804   0.57047   0.50000   0.0000000000
H          H       0.12146   0.46151   0.50000   0.0000000000
H          H       0.27718   0.48131   0.50000   0.0000000000
H          H       0.22367   0.48132   0.50000   0.0000000000
N          N       0.27886   0.57987   0.50000   0.0000000000
N          N       0.22202   0.57987   0.50000   0.0000000000
S          S       0.25044   0.60564   0.50000   0.0000000000
C          C       0.44425   0.97042   0.50000   0.0000000000
C          C       0.41321   0.97563   0.50000   0.0000000000
C          C       0.36306   0.96944   0.50000   0.0000000000
C          C       0.38991   0.95636   0.50000   0.0000000000
H          H       0.39281   0.93318   0.50000   0.0000000000
N          N       0.45901   0.99668   0.50000   0.0000000000
N          N       0.04532   0.94422   0.50000   0.0000000000
C          C       0.05662   0.97042   0.50000   0.0000000000
N          N       0.04185   0.99667   0.50000   0.0000000000
C          C       0.40948   0.00590   0.50000   0.0000000000
O          O       0.32957   0.00583   0.50000   0.0000000000
B          B       0.31499   0.97865   0.50000   0.0000000000
O          O       0.33572   0.95616   0.50000   0.0000000000
C          C       0.08765   0.97564   0.50000   0.0000000000
C          C       0.09138   0.00591   0.50000   0.0000000000
C          C       0.06255   0.01852   0.50000   0.0000000000
C          C       0.11866   0.01896   0.50000   0.0000000000
C          C       0.14155   0.99977   0.50000   0.0000000000
C          C       0.13780   0.96945   0.50000   0.0000000000
C          C       0.11096   0.95638   0.50000   0.0000000000
O          O       0.16516   0.95618   0.50000   0.0000000000
B          B       0.18587   0.97868   0.50000   0.0000000000
C          C       0.21895   0.97668   0.50000   0.0000000000
C          C       0.23500   0.00183   0.50000   0.0000000000
C          C       0.26588   0.00183   0.50000   0.0000000000
C          C       0.28192   0.97668   0.50000   0.0000000000
C          C       0.26632   0.94970   0.50000   0.0000000000
O          O       0.17130   0.00585   0.50000   0.0000000000
H          H       0.37947   0.04215   0.50000   0.0000000000
H          H       0.12139   0.04217   0.50000   0.0000000000
H          H       0.10807   0.93319   0.50000   0.0000000000
H          H       0.27718   0.02238   0.50000   0.0000000000
H          H       0.22368   0.02238   0.50000   0.0000000000
N          N       0.27886   0.92381   0.50000   0.0000000000
N          N       0.22202   0.92381   0.50000   0.0000000000
S          S       0.25044   0.89804   0.50000   0.0000000000
C          C       0.28192   0.52700   0.50000   0.0000000000
C          C       0.26633   0.55398   0.50000   0.0000000000
C          C       0.23455   0.94970   0.50000   0.0000000000
Ni         Ni     -0.00013   0.50025   0.50000   0.0000000000
Ni         Ni      0.00041   0.00181   0.50000   0.0000000000
N          N       0.46040   0.50471   0.50000   0.0000000000
N          N       0.45695   0.55715   0.50000   0.0000000000
C          C       0.48512   0.56172   0.50000   0.0000000000
C          C       0.49773   0.59055   0.50000   0.0000000000
C          C       0.52680   0.58618   0.50000   0.0000000000
C          C       0.53144   0.55621   0.50000   0.0000000000
C          C       0.54588   0.60984   0.50000   0.0000000000
C          C       0.53336   0.63767   0.50000   0.0000000000
C          C       0.50365   0.64130   0.50000   0.0000000000
C          C       0.48470   0.61782   0.50000   0.0000000000
O          O       0.49548   0.66991   0.50000   0.0000000000
B          B       0.52360   0.68425   0.50000   0.0000000000
O          O       0.54798   0.66392   0.50000   0.0000000000
N          N       0.45695   0.94198   0.50000   0.0000000000
C          C       0.48512   0.93741   0.50000   0.0000000000
N          N       0.50697   0.95814   0.50000   0.0000000000
C          C       0.53321   0.94337   0.50000   0.0000000000
C          C       0.52801   0.91234   0.50000   0.0000000000
C          C       0.49774   0.90859   0.50000   0.0000000000
C          C       0.48471   0.88130   0.50000   0.0000000000
C          C       0.50391   0.85843   0.50000   0.0000000000
C          C       0.53423   0.86219   0.50000   0.0000000000
C          C       0.54729   0.88904   0.50000   0.0000000000
C          C       0.56397   0.98285   0.50000   0.0000000000
C          C       0.62009   0.98246   0.50000   0.0000000000
C          C       0.64296   0.00168   0.50000   0.0000000000
N          N       0.55941   0.95469   0.50000   0.0000000000
O          O       0.49786   0.82869   0.50000   0.0000000000
B          B       0.52503   0.81412   0.50000   0.0000000000
C          C       0.52677   0.77998   0.50000   0.0000000000
C          C       0.55225   0.76370   0.50000   0.0000000000
C          C       0.50019   0.73440   0.50000   0.0000000000
C          C       0.50063   0.76460   0.50000   0.0000000000
O          O       0.54752   0.83486   0.50000   0.0000000000
H          H       0.56896   0.60692   0.50000   0.0000000000
H          H       0.46150   0.62058   0.50000   0.0000000000
H          H       0.57047   0.89196   0.50000   0.0000000000
H          H       0.46151   0.87854   0.50000   0.0000000000
H          H       0.47951   0.72367   0.50000   0.0000000000
H          H       0.48023   0.77586   0.50000   0.0000000000
N          N       0.57823   0.72244   0.50000   0.0000000000
N          N       0.57895   0.77456   0.50000   0.0000000000
S          S       0.60410   0.74815   0.50000   0.0000000000
C          C       0.96927   0.55649   0.49999   0.0000000000
C          C       0.97582   0.58713   0.49999   0.0000000000
C          C       0.96870   0.63827   0.49999   0.0000000000
C          C       0.95672   0.61059   0.49998   0.0000000000
H          H       0.93366   0.60747   0.49997   0.0000000000
N          N       0.99555   0.54094   0.50000   0.0000000000
N          N       0.94422   0.95468   0.50000   0.0000000000
C          C       0.97042   0.94338   0.50000   0.0000000000
N          N       0.99667   0.95815   0.50000   0.0000000000
C          C       0.00590   0.59052   0.50000   0.0000000000
O          O       0.00583   0.67043   0.50000   0.0000000000
B          B       0.97792   0.68448   0.50000   0.0000000000
O          O       0.95366   0.66418   0.49999   0.0000000000
C          C       0.97615   0.91334   0.50000   0.0000000000
C          C       0.00591   0.90862   0.50000   0.0000000000
C          C       0.01852   0.93745   0.50000   0.0000000000
C          C       0.01896   0.88134   0.50000   0.0000000000
C          C       0.99908   0.85789   0.50000   0.0000000000
C          C       0.96931   0.86208   0.50000   0.0000000000
C          C       0.95710   0.88986   0.50000   0.0000000000
O          O       0.95396   0.83623   0.50000   0.0000000000
B          B       0.97774   0.81543   0.50000   0.0000000000
C          C       0.97562   0.78123   0.50001   0.0000000000
C          C       0.00183   0.76500   0.50000   0.0000000000
C          C       0.00183   0.73412   0.50000   0.0000000000
C          C       0.97587   0.71823   0.50000   0.0000000000
C          C       0.94954   0.73295   0.50000   0.0000000000
O          O       0.00585   0.82870   0.50000   0.0000000000
H          H       0.04215   0.62053   0.50000   0.0000000000
H          H       0.04217   0.87861   0.50000   0.0000000000
H          H       0.93403   0.89290   0.50000   0.0000000000
H          H       0.02238   0.72282   0.50000   0.0000000000
H          H       0.02238   0.77632   0.50000   0.0000000000
N          N       0.92462   0.72077   0.50000   0.0000000000
N          N       0.92291   0.77479   0.50000   0.0000000000
S          S       0.89649   0.74693   0.50000   0.0000000000
C          C       0.52588   0.71837   0.50000   0.0000000000
C          C       0.55183   0.73399   0.50000   0.0000000000
C          C       0.94844   0.76408   0.50000   0.0000000000
N          N       0.54037   0.49477   0.50000   0.0000000000
N          N       0.54369   0.44221   0.50000   0.0000000000
C          C       0.51488   0.43828   0.50000   0.0000000000
C          C       0.50227   0.40945   0.50000   0.0000000000
C          C       0.47199   0.41320   0.50000   0.0000000000
C          C       0.46679   0.44424   0.50000   0.0000000000
C          C       0.45272   0.38991   0.50000   0.0000000000
C          C       0.46578   0.36306   0.50000   0.0000000000
C          C       0.49610   0.35930   0.50000   0.0000000000
C          C       0.51530   0.38218   0.50000   0.0000000000
O          O       0.50216   0.32956   0.50000   0.0000000000
B          B       0.47498   0.31498   0.50000   0.0000000000
O          O       0.45250   0.33573   0.50000   0.0000000000
N          N       0.54305   0.05802   0.50000   0.0000000000
C          C       0.51488   0.06259   0.50000   0.0000000000
N          N       0.49303   0.04186   0.50000   0.0000000000
C          C       0.46679   0.05663   0.50000   0.0000000000
C          C       0.47199   0.08766   0.50000   0.0000000000
C          C       0.50226   0.09141   0.50000   0.0000000000
C          C       0.51529   0.11870   0.50000   0.0000000000
C          C       0.49609   0.14157   0.50000   0.0000000000
C          C       0.46577   0.13781   0.50000   0.0000000000
C          C       0.45271   0.11096   0.50000   0.0000000000
C          C       0.43603   0.01715   0.50000   0.0000000000
C          C       0.37991   0.01754   0.50000   0.0000000000
C          C       0.35704   0.99832   0.50000   0.0000000000
N          N       0.44059   0.04531   0.50000   0.0000000000
O          O       0.50214   0.17131   0.50000   0.0000000000
B          B       0.47497   0.18588   0.50000   0.0000000000
C          C       0.47299   0.21895   0.50000   0.0000000000
C          C       0.44602   0.23455   0.50000   0.0000000000
C          C       0.49816   0.26587   0.50000   0.0000000000
C          C       0.49815   0.23499   0.50000   0.0000000000
O          O       0.45248   0.16514   0.50000   0.0000000000
H          H       0.42954   0.39281   0.50000   0.0000000000
H          H       0.53850   0.37942   0.50000   0.0000000000
H          H       0.42953   0.10804   0.50000   0.0000000000
H          H       0.53849   0.12146   0.50000   0.0000000000
H          H       0.51869   0.27718   0.50000   0.0000000000
H          H       0.51868   0.22367   0.50000   0.0000000000
N          N       0.42013   0.27886   0.50000   0.0000000000
N          N       0.42013   0.22202   0.50000   0.0000000000
S          S       0.39436   0.25044   0.50000   0.0000000000
C          C       0.02958   0.44425   0.50000   0.0000000000
C          C       0.02437   0.41321   0.50000   0.0000000000
C          C       0.03056   0.36306   0.50000   0.0000000000
C          C       0.04364   0.38991   0.50000   0.0000000000
H          H       0.06682   0.39281   0.50000   0.0000000000
N          N       0.00332   0.45901   0.50000   0.0000000000
N          N       0.05578   0.04532   0.50000   0.0000000000
C          C       0.02958   0.05662   0.50000   0.0000000000
N          N       0.00333   0.04185   0.50000   0.0000000000
C          C       0.99410   0.40948   0.50000   0.0000000000
O          O       0.99417   0.32957   0.50000   0.0000000000
B          B       0.02135   0.31499   0.50000   0.0000000000
O          O       0.04384   0.33572   0.50000   0.0000000000
C          C       0.02436   0.08765   0.50000   0.0000000000
C          C       0.99409   0.09138   0.50000   0.0000000000
C          C       0.98148   0.06255   0.50000   0.0000000000
C          C       0.98104   0.11866   0.50000   0.0000000000
C          C       0.00023   0.14155   0.50000   0.0000000000
C          C       0.03055   0.13780   0.50000   0.0000000000
C          C       0.04362   0.11096   0.50000   0.0000000000
O          O       0.04382   0.16516   0.50000   0.0000000000
B          B       0.02132   0.18587   0.50000   0.0000000000
C          C       0.02332   0.21895   0.50000   0.0000000000
C          C       0.99817   0.23500   0.50000   0.0000000000
C          C       0.99817   0.26588   0.50000   0.0000000000
C          C       0.02332   0.28192   0.50000   0.0000000000
C          C       0.05030   0.26632   0.50000   0.0000000000
O          O       0.99415   0.17130   0.50000   0.0000000000
H          H       0.95785   0.37947   0.50000   0.0000000000
H          H       0.95783   0.12139   0.50000   0.0000000000
H          H       0.06681   0.10807   0.50000   0.0000000000
H          H       0.97762   0.27718   0.50000   0.0000000000
H          H       0.97762   0.22368   0.50000   0.0000000000
N          N       0.07619   0.27886   0.50000   0.0000000000
N          N       0.07619   0.22202   0.50000   0.0000000000
S          S       0.10196   0.25044   0.50000   0.0000000000
C          C       0.47300   0.28192   0.50000   0.0000000000
C          C       0.44602   0.26633   0.50000   0.0000000000
C          C       0.05030   0.23455   0.50000   0.0000000000
Ni         Ni      0.49817   0.00042   0.50000   0.0000000000
Ni         Ni      0.50024   0.49984   0.50000   0.0000000000
