data_crystal

_cell_length_a    46.49160
_cell_length_b    46.49160
_cell_length_c    6.80980
_cell_angle_alpha 90.00000
_cell_angle_beta  90.00000
_cell_angle_gamma 90.00000

_space_group_name_Hall 'P 1'
_space_group_name_H-M_alt  'P 1'

loop_
_symmetry_equiv_pos_as_xyz
'x,y,z' 

loop_
_atom_site_label
_atom_site_type_symbol
_atom_site_fract_x
_atom_site_fract_y
_atom_site_fract_z
N          N       0.50553   0.54112   0.25080 
N          N       0.55781   0.54417   0.25033 
C          C       0.56197   0.51597   0.25044 
C          C       0.59063   0.50311   0.25000 
C          C       0.58668   0.47298   0.24999 
C          C       0.55562   0.46815   0.25042 
C          C       0.60997   0.45367   0.24942 
C          C       0.63704   0.46639   0.24897 
C          C       0.64086   0.49645   0.24901 
C          C       0.61806   0.51575   0.24946 
O          O       0.67005   0.50240   0.24820 
B          B       0.68434   0.47554   0.24845 
O          O       0.66386   0.45321   0.24811 
N          N       0.94232   0.54471   0.25020 
C          C       0.93787   0.51658   0.25027 
N          N       0.95856   0.49494   0.25056 
C          C       0.94407   0.46880   0.25022 
C          C       0.91305   0.47367   0.24990 
C          C       0.90910   0.50381   0.24990 
C          C       0.88157   0.51628   0.24941 
C          C       0.85883   0.49685   0.24904 
C          C       0.86273   0.46680   0.24906 
C          C       0.88987   0.45425   0.24944 
C          C       0.98365   0.43842   0.25020 
C          C       0.98271   0.38261   0.24940 
C          C       0.00147   0.35941   0.24900 
N          N       0.95549   0.44273   0.25006 
O          O       0.82960   0.50264   0.24822 
B          B       0.81541   0.47572   0.24855 
C          C       0.78188   0.47355   0.24929 
C          C       0.76564   0.44735   0.24950 
C          C       0.73459   0.49845   0.24953 
C          C       0.76511   0.49847   0.24955 
O          O       0.83597   0.45346   0.24826 
H          H       0.60687   0.43050   0.24916 
H          H       0.62099   0.53894   0.24920 
H          H       0.89314   0.43111   0.24919 
H          H       0.87840   0.53944   0.24914 
H          H       0.72366   0.51918   0.24953 
H          H       0.77600   0.51922   0.24955 
N          N       0.72284   0.42050   0.24956 
N          N       0.77703   0.42057   0.24973 
S          S       0.74996   0.39847   0.24983 
C          C       0.55594   0.03146   0.25028 
C          C       0.58695   0.02612   0.24989 
C          C       0.63743   0.03159   0.24899 
C          C       0.61063   0.04494   0.24940 
H          H       0.60806   0.06817   0.24915 
N          N       0.54118   0.00535   0.25056 
N          N       0.95459   0.05692   0.25022 
C          C       0.94365   0.03063   0.25029 
N          N       0.95859   0.00469   0.25060 
C          C       0.59039   0.99593   0.24985 
O          O       0.66968   0.99479   0.24822 
B          B       0.68446   0.02139   0.24849 
O          O       0.66451   0.04418   0.24820 
C          C       0.91271   0.02512   0.24990 
C          C       0.90936   0.99492   0.24990 
C          C       0.93827   0.98274   0.25029 
C          C       0.88223   0.98167   0.24939 
C          C       0.85904   0.00050   0.24896 
C          C       0.86232   0.03063   0.24894 
C          C       0.88908   0.04393   0.24938 
O          O       0.83535   0.04332   0.24811 
B          B       0.81526   0.02069   0.24845 
C          C       0.78178   0.02266   0.24925 
C          C       0.76498   0.99776   0.24953 
C          C       0.73447   0.99792   0.24954 
C          C       0.71795   0.02301   0.24920 
C          C       0.73430   0.04911   0.24938 
O          O       0.82992   0.99406   0.24816 
H          H       0.61982   0.95942   0.24916 
H          H       0.87978   0.95842   0.24912 
H          H       0.89172   0.06714   0.24911 
H          H       0.72338   0.97728   0.24959 
H          H       0.77587   0.97700   0.24950 
N          N       0.72304   0.07596   0.24948 
N          N       0.77724   0.07569   0.24972 
S          S       0.75025   0.09788   0.24980 
C          C       0.71788   0.47348   0.24922 
C          C       0.73416   0.44731   0.24943 
C          C       0.76572   0.04895   0.24947 
N          N       0.49441   0.45873   0.25081 
N          N       0.44207   0.45574   0.25029 
C          C       0.43790   0.48391   0.25040 
C          C       0.40925   0.49675   0.24997 
C          C       0.41321   0.52687   0.24997 
C          C       0.44425   0.53166   0.25043 
C          C       0.39000   0.54623   0.24940 
C          C       0.36293   0.53354   0.24895 
C          C       0.35906   0.50349   0.24900 
C          C       0.38182   0.48415   0.24945 
O          O       0.32988   0.49760   0.24822 
B          B       0.31564   0.52448   0.24845 
O          O       0.33615   0.54678   0.24810 
N          N       0.05776   0.45530   0.25023 
C          C       0.06220   0.48345   0.25027 
N          N       0.04153   0.50512   0.25054 
C          C       0.05601   0.53129   0.25021 
C          C       0.08704   0.52637   0.24988 
C          C       0.09098   0.49622   0.24990 
C          C       0.11852   0.48377   0.24942 
C          C       0.14122   0.50323   0.24903 
C          C       0.13732   0.53327   0.24903 
C          C       0.11018   0.54581   0.24942 
C          C       0.01644   0.56171   0.25025 
C          C       0.01703   0.61764   0.24939 
C          C       0.99810   0.64072   0.24898 
N          N       0.04460   0.55736   0.25009 
O          O       0.17045   0.49744   0.24822 
B          B       0.18462   0.52436   0.24852 
C          C       0.21814   0.52653   0.24926 
C          C       0.23437   0.55272   0.24947 
C          C       0.26538   0.50159   0.24953 
C          C       0.23487   0.50158   0.24955 
O          O       0.16408   0.54661   0.24824 
H          H       0.39313   0.56939   0.24913 
H          H       0.37883   0.46097   0.24921 
H          H       0.10685   0.56895   0.24920 
H          H       0.12178   0.46061   0.24914 
H          H       0.27632   0.48087   0.24953 
H          H       0.22390   0.48088   0.24954 
N          N       0.27717   0.57956   0.24953 
N          N       0.22298   0.57950   0.24969 
S          S       0.25005   0.60160   0.24980 
C          C       0.44405   0.96851   0.25027 
C          C       0.41304   0.97383   0.24988 
C          C       0.36257   0.96835   0.24899 
C          C       0.38936   0.95501   0.24940 
H          H       0.39195   0.93177   0.24916 
N          N       0.45883   0.99461   0.25055 
N          N       0.04526   0.94297   0.25019 
C          C       0.05623   0.96925   0.25028 
N          N       0.04129   0.99521   0.25060 
C          C       0.40960   0.00402   0.24985 
O          O       0.33030   0.00512   0.24822 
B          B       0.31552   0.97852   0.24849 
O          O       0.33549   0.95573   0.24821 
C          C       0.08718   0.97477   0.24988 
C          C       0.09050   0.00498   0.24988 
C          C       0.06159   0.01720   0.25028 
C          C       0.11764   0.01823   0.24938 
C          C       0.14087   0.99945   0.24895 
C          C       0.13761   0.96933   0.24893 
C          C       0.11085   0.95598   0.24936 
O          O       0.16460   0.95666   0.24810 
B          B       0.18469   0.97930   0.24845 
C          C       0.21819   0.97734   0.24925 
C          C       0.23501   0.00223   0.24953 
C          C       0.26552   0.00205   0.24954 
C          C       0.28203   0.97696   0.24920 
C          C       0.26568   0.95087   0.24937 
O          O       0.17000   0.00593   0.24815 
H          H       0.38023   0.04054   0.24916 
H          H       0.12001   0.04147   0.24913 
H          H       0.10828   0.93275   0.24910 
H          H       0.27662   0.02270   0.24959 
H          H       0.22415   0.02300   0.24951 
N          N       0.27695   0.92404   0.24947 
N          N       0.22275   0.92430   0.24973 
S          S       0.24975   0.90211   0.24980 
C          C       0.28210   0.52657   0.24920 
C          C       0.26584   0.55275   0.24941 
C          C       0.23425   0.95104   0.24947 
Ni         Ni      1.00008   0.50005   0.25139 
Ni         Ni     -0.00006  -0.00005   0.25134 
N          N       0.45867   0.50544   0.25078 
N          N       0.45575   0.55768   0.25037 
C          C       0.48392   0.56179   0.25045 
C          C       0.49653   0.59046   0.24999 
C          C       0.52669   0.58672   0.24999 
C          C       0.53174   0.55565   0.25042 
C          C       0.54565   0.61025   0.24945 
C          C       0.53256   0.63713   0.24899 
C          C       0.50247   0.64071   0.24898 
C          C       0.48349   0.61768   0.24943 
O          O       0.49628   0.66987   0.24815 
B          B       0.52308   0.68435   0.24847 
O          O       0.54549   0.66401   0.24815 
N          N       0.45522   0.94231   0.25021 
C          C       0.48337   0.93788   0.25026 
N          N       0.50505   0.95853   0.25054 
C          C       0.53118   0.94400   0.25018 
C          C       0.52624   0.91299   0.24986 
C          C       0.49610   0.90911   0.24988 
C          C       0.48356   0.88161   0.24941 
C          C       0.50294   0.85885   0.24904 
C          C       0.53300   0.86269   0.24905 
C          C       0.54564   0.88979   0.24942 
C          C       0.56162   0.98353   0.25018 
C          C       0.61748   0.98267   0.24938 
C          C       0.64065   0.00146   0.24899 
N          N       0.55726   0.95538   0.25000 
O          O       0.49701   0.82964   0.24824 
B          B       0.52394   0.81540   0.24854 
C          C       0.52605   0.78188   0.24927 
C          C       0.55210   0.76543   0.24947 
C          C       0.50073   0.73485   0.24956 
C          C       0.50098   0.76536   0.24957 
O          O       0.54623   0.83589   0.24825 
H          H       0.56886   0.60754   0.24922 
H          H       0.46024   0.62021   0.24919 
H          H       0.56878   0.89310   0.24920 
H          H       0.46041   0.87843   0.24915 
H          H       0.47990   0.72412   0.24955 
H          H       0.48036   0.77649   0.24958 
N          N       0.57861   0.72245   0.24974 
N          N       0.57896   0.77664   0.24958 
S          S       0.60086   0.74941   0.24987 
C          C       0.96853   0.55589   0.25030 
C          C       0.97376   0.58690   0.24991 
C          C       0.96799   0.63731   0.24901 
C          C       0.95478   0.61045   0.24942 
H          H       0.93156   0.60768   0.24918 
N          N       0.99467   0.54120   0.25061 
N          N       0.94299   0.95468   0.25023 
C          C       0.96926   0.94374   0.25028 
N          N       0.99523   0.95861   0.25057 
C          C       0.00393   0.59046   0.24989 
O          O       0.00452   0.66979   0.24816 
B          B       0.97788   0.68445   0.24852 
O          O       0.95526   0.66431   0.24824 
C          C       0.97463   0.91281   0.24990 
C          C       0.00481   0.90933   0.24989 
C          C       0.01717   0.93824   0.25026 
C          C       0.01777   0.88205   0.24941 
C          C       0.99873   0.85901   0.24902 
C          C       0.96862   0.86245   0.24902 
C          C       0.95557   0.88936   0.24943 
O          O       0.95572   0.83552   0.24823 
B          B       0.97832   0.81533   0.24853 
C          C       0.97639   0.78184   0.24928 
C          C       0.00132   0.76506   0.24957 
C          C       0.00120   0.73455   0.24958 
C          C       0.97615   0.71796   0.24930 
C          C       0.95003   0.73428   0.24952 
O          O       0.00505   0.82986   0.24823 
H          H       0.04027   0.62010   0.24913 
H          H       0.04098   0.87934   0.24916 
H          H       0.93238   0.89229   0.24921 
H          H       0.02188   0.72351   0.24956 
H          H       0.02207   0.77595   0.24960 
N          N       0.92320   0.72299   0.24967 
N          N       0.92339   0.77719   0.24968 
S          S       0.90123   0.75017   0.24988 
C          C       0.52551   0.71788   0.24928 
C          C       0.55187   0.73394   0.24953 
C          C       0.95014   0.76572   0.24951 
N          N       0.54120   0.49441   0.25080 
N          N       0.54413   0.44209   0.25030 
C          C       0.51594   0.43796   0.25042 
C          C       0.50311   0.40932   0.24998 
C          C       0.47299   0.41327   0.24997 
C          C       0.46815   0.44431   0.25042 
C          C       0.45366   0.39002   0.24940 
C          C       0.46638   0.36296   0.24894 
C          C       0.49644   0.35914   0.24899 
C          C       0.51575   0.38192   0.24945 
O          O       0.50239   0.32997   0.24821 
B          B       0.47554   0.31568   0.24844 
O          O       0.45321   0.33615   0.24808 
N          N       0.54476   0.05768   0.25022 
C          C       0.51662   0.06214   0.25027 
N          N       0.49495   0.04147   0.25055 
C          C       0.46880   0.05597   0.25019 
C          C       0.47371   0.08699   0.24987 
C          C       0.50385   0.09093   0.24989 
C          C       0.51629   0.11849   0.24942 
C          C       0.49681   0.14120   0.24904 
C          C       0.46677   0.13730   0.24904 
C          C       0.45426   0.11014   0.24941 
C          C       0.43838   0.01641   0.25019 
C          C       0.38252   0.01728   0.24939 
C          C       0.35933   0.99849   0.24899 
N          N       0.44273   0.04457   0.25003 
O          O       0.50259   0.17043   0.24823 
B          B       0.47567   0.18462   0.24853 
C          C       0.47349   0.21816   0.24925 
C          C       0.44730   0.23441   0.24946 
C          C       0.49844   0.26542   0.24953 
C          C       0.49844   0.23491   0.24954 
O          O       0.45342   0.16406   0.24824 
H          H       0.43050   0.39317   0.24913 
H          H       0.53894   0.37898   0.24920 
H          H       0.43114   0.10675   0.24920 
H          H       0.53945   0.12173   0.24914 
H          H       0.51917   0.27637   0.24953 
H          H       0.51916   0.22396   0.24954 
N          N       0.42050   0.27724   0.24957 
N          N       0.42051   0.22305   0.24966 
S          S       0.39844   0.25015   0.24981 
C          C       0.03155   0.44411   0.25027 
C          C       0.02621   0.41310   0.24989 
C          C       0.03161   0.36263   0.24899 
C          C       0.04500   0.38940   0.24940 
H          H       0.06823   0.39196   0.24914 
N          N       0.00545   0.45888   0.25053 
N          N       0.05686   0.04529   0.25020 
C          C       0.03059   0.05628   0.25028 
N          N       0.00464   0.04134   0.25060 
C          C       0.99603   0.40967   0.24987 
O          O       0.99480   0.33038   0.24822 
B          B       0.02140   0.31560   0.24849 
O          O       0.04419   0.33555   0.24820 
C          C       0.02510   0.08723   0.24988 
C          C       0.99489   0.09058   0.24988 
C          C       0.98267   0.06165   0.25029 
C          C       0.98167   0.11774   0.24938 
C          C       0.00050   0.14094   0.24895 
C          C       0.03062   0.13765   0.24893 
C          C       0.04391   0.11088   0.24937 
O          O       0.04331   0.16464   0.24811 
B          B       0.02068   0.18474   0.24845 
C          C       0.02265   0.21824   0.24925 
C          C       0.99775   0.23506   0.24953 
C          C       0.99791   0.26557   0.24954 
C          C       0.02299   0.28210   0.24921 
C          C       0.04908   0.26576   0.24939 
O          O       0.99405   0.17007   0.24815 
H          H       0.95946   0.38034   0.24917 
H          H       0.95842   0.12019   0.24912 
H          H       0.06714   0.10826   0.24911 
H          H       0.97725   0.27666   0.24959 
H          H       0.97699   0.22419   0.24951 
N          N       0.07591   0.27703   0.24950 
N          N       0.07568   0.22284   0.24972 
S          S       0.09786   0.24985   0.24981 
C          C       0.47348   0.28214   0.24921 
C          C       0.44730   0.26588   0.24942 
C          C       0.04893   0.23432   0.24947 
Ni         Ni      0.50002  -0.00001   0.25138 
Ni         Ni      0.49997   0.49994   0.25167 
N          N       0.50553   0.54112   0.74920 
N          N       0.55781   0.54417   0.74968 
C          C       0.56197   0.51597   0.74957 
C          C       0.59063   0.50311   0.75000 
C          C       0.58668   0.47298   0.75002 
C          C       0.55562   0.46815   0.74958 
C          C       0.60997   0.45367   0.75058 
C          C       0.63704   0.46639   0.75103 
C          C       0.64086   0.49645   0.75099 
C          C       0.61806   0.51575   0.75054 
O          O       0.67005   0.50240   0.75180 
B          B       0.68434   0.47554   0.75155 
O          O       0.66386   0.45321   0.75189 
N          N       0.94232   0.54472   0.74978 
C          C       0.93787   0.51658   0.74971 
N          N       0.95856   0.49494   0.74942 
C          C       0.94407   0.46880   0.74977 
C          C       0.91305   0.47367   0.75010 
C          C       0.90910   0.50381   0.75008 
C          C       0.88157   0.51628   0.75057 
C          C       0.85883   0.49685   0.75095 
C          C       0.86273   0.46680   0.75094 
C          C       0.88987   0.45425   0.75056 
C          C       0.98365   0.43842   0.74981 
C          C       0.98271   0.38261   0.75061 
C          C       0.00147   0.35941   0.75100 
N          N       0.95549   0.44273   0.74994 
O          O       0.82960   0.50264   0.75178 
B          B       0.81541   0.47572   0.75145 
C          C       0.78188   0.47355   0.75071 
C          C       0.76564   0.44735   0.75050 
C          C       0.73459   0.49845   0.75047 
C          C       0.76511   0.49847   0.75045 
O          O       0.83597   0.45346   0.75174 
H          H       0.60687   0.43050   0.75084 
H          H       0.62099   0.53894   0.75080 
H          H       0.89314   0.43111   0.75081 
H          H       0.87840   0.53944   0.75084 
H          H       0.72366   0.51918   0.75047 
H          H       0.77600   0.51922   0.75046 
N          N       0.72284   0.42050   0.75044 
N          N       0.77703   0.42057   0.75028 
S          S       0.74996   0.39847   0.75017 
C          C       0.55594   0.03146   0.74972 
C          C       0.58695   0.02612   0.75011 
C          C       0.63743   0.03159   0.75101 
C          C       0.61063   0.04494   0.75060 
H          H       0.60806   0.06817   0.75085 
N          N       0.54118   0.00535   0.74944 
N          N       0.95459   0.05692   0.74978 
C          C       0.94365   0.03063   0.74971 
N          N       0.95859   0.00469   0.74940 
C          C       0.59039   0.99593   0.75015 
O          O       0.66968   0.99479   0.75178 
B          B       0.68446   0.02139   0.75151 
O          O       0.66451   0.04418   0.75180 
C          C       0.91271   0.02512   0.75010 
C          C       0.90936   0.99492   0.75010 
C          C       0.93827   0.98274   0.74971 
C          C       0.88223   0.98167   0.75061 
C          C       0.85904   0.00050   0.75104 
C          C       0.86232   0.03063   0.75106 
C          C       0.88908   0.04393   0.75062 
O          O       0.83535   0.04332   0.75189 
B          B       0.81526   0.02069   0.75155 
C          C       0.78178   0.02266   0.75075 
C          C       0.76498   0.99776   0.75047 
C          C       0.73447   0.99792   0.75046 
C          C       0.71795   0.02301   0.75080 
C          C       0.73430   0.04911   0.75062 
O          O       0.82992   0.99406   0.75184 
H          H       0.61982   0.95942   0.75084 
H          H       0.87978   0.95842   0.75088 
H          H       0.89172   0.06714   0.75089 
H          H       0.72338   0.97728   0.75041 
H          H       0.77587   0.97700   0.75050 
N          N       0.72304   0.07596   0.75052 
N          N       0.77724   0.07569   0.75028 
S          S       0.75025   0.09788   0.75020 
C          C       0.71788   0.47348   0.75078 
C          C       0.73416   0.44731   0.75057 
C          C       0.76572   0.04895   0.75053 
N          N       0.49441   0.45873   0.74920 
N          N       0.44207   0.45574   0.74971 
C          C       0.43790   0.48391   0.74960 
C          C       0.40925   0.49675   0.75003 
C          C       0.41321   0.52687   0.75003 
C          C       0.44425   0.53166   0.74957 
C          C       0.39000   0.54623   0.75060 
C          C       0.36293   0.53354   0.75105 
C          C       0.35906   0.50349   0.75100 
C          C       0.38182   0.48415   0.75055 
O          O       0.32988   0.49760   0.75178 
B          B       0.31564   0.52448   0.75155 
O          O       0.33615   0.54678   0.75190 
N          N       0.05776   0.45530   0.74977 
C          C       0.06220   0.48345   0.74973 
N          N       0.04153   0.50512   0.74947 
C          C       0.05601   0.53129   0.74979 
C          C       0.08704   0.52637   0.75012 
C          C       0.09098   0.49622   0.75010 
C          C       0.11852   0.48377   0.75058 
C          C       0.14122   0.50323   0.75097 
C          C       0.13732   0.53327   0.75097 
C          C       0.11018   0.54581   0.75058 
C          C       0.01644   0.56171   0.74975 
C          C       0.01703   0.61764   0.75061 
C          C       0.99810   0.64072   0.75102 
N          N       0.04460   0.55736   0.74991 
O          O       0.17045   0.49744   0.75178 
B          B       0.18462   0.52436   0.75148 
C          C       0.21814   0.52653   0.75074 
C          C       0.23437   0.55272   0.75053 
C          C       0.26538   0.50159   0.75047 
C          C       0.23487   0.50158   0.75045 
O          O       0.16408   0.54661   0.75176 
H          H       0.39313   0.56939   0.75087 
H          H       0.37883   0.46097   0.75079 
H          H       0.10685   0.56895   0.75080 
H          H       0.12178   0.46061   0.75086 
H          H       0.27632   0.48087   0.75047 
H          H       0.22390   0.48088   0.75046 
N          N       0.27717   0.57956   0.75047 
N          N       0.22298   0.57950   0.75031 
S          S       0.25005   0.60160   0.75020 
C          C       0.44405   0.96851   0.74973 
C          C       0.41304   0.97383   0.75012 
C          C       0.36257   0.96835   0.75101 
C          C       0.38936   0.95501   0.75060 
H          H       0.39195   0.93177   0.75084 
N          N       0.45883   0.99461   0.74945 
N          N       0.04526   0.94297   0.74981 
C          C       0.05623   0.96925   0.74972 
N          N       0.04129   0.99521   0.74940 
C          C       0.40960   0.00402   0.75015 
O          O       0.33030   0.00512   0.75178 
B          B       0.31552   0.97852   0.75151 
O          O       0.33549   0.95573   0.75179 
C          C       0.08718   0.97477   0.75012 
C          C       0.09050   0.00498   0.75012 
C          C       0.06159   0.01720   0.74972 
C          C       0.11764   0.01823   0.75062 
C          C       0.14087   0.99945   0.75105 
C          C       0.13761   0.96933   0.75107 
C          C       0.11085   0.95598   0.75064 
O          O       0.16460   0.95666   0.75190 
B          B       0.18469   0.97930   0.75155 
C          C       0.21819   0.97734   0.75075 
C          C       0.23501   0.00223   0.75047 
C          C       0.26552   0.00205   0.75046 
C          C       0.28203   0.97696   0.75080 
C          C       0.26568   0.95087   0.75063 
O          O       0.17000   0.00593   0.75185 
H          H       0.38023   0.04054   0.75084 
H          H       0.12001   0.04147   0.75087 
H          H       0.10828   0.93275   0.75090 
H          H       0.27662   0.02270   0.75041 
H          H       0.22415   0.02300   0.75049 
N          N       0.27695   0.92404   0.75053 
N          N       0.22275   0.92430   0.75027 
S          S       0.24975   0.90211   0.75020 
C          C       0.28210   0.52657   0.75080 
C          C       0.26584   0.55275   0.75059 
C          C       0.23425   0.95104   0.75053 
Ni         Ni      1.00008   0.50005   0.74861 
Ni         Ni     -0.00006  -0.00005   0.74866 
N          N       0.45867   0.50544   0.74922 
N          N       0.45575   0.55768   0.74963 
C          C       0.48392   0.56179   0.74955 
C          C       0.49653   0.59046   0.75001 
C          C       0.52669   0.58672   0.75001 
C          C       0.53174   0.55565   0.74958 
C          C       0.54565   0.61025   0.75055 
C          C       0.53256   0.63713   0.75101 
C          C       0.50247   0.64071   0.75102 
C          C       0.48349   0.61768   0.75057 
O          O       0.49628   0.66987   0.75185 
B          B       0.52308   0.68435   0.75153 
O          O       0.54549   0.66401   0.75185 
N          N       0.45522   0.94231   0.74979 
C          C       0.48337   0.93788   0.74974 
N          N       0.50505   0.95853   0.74946 
C          C       0.53118   0.94400   0.74982 
C          C       0.52624   0.91299   0.75014 
C          C       0.49610   0.90911   0.75012 
C          C       0.48356   0.88161   0.75059 
C          C       0.50294   0.85885   0.75096 
C          C       0.53300   0.86269   0.75095 
C          C       0.54564   0.88979   0.75058 
C          C       0.56162   0.98353   0.74982 
C          C       0.61748   0.98267   0.75062 
C          C       0.64065   0.00146   0.75101 
N          N       0.55726   0.95538   0.75000 
O          O       0.49701   0.82964   0.75176 
B          B       0.52394   0.81540   0.75146 
C          C       0.52605   0.78188   0.75073 
C          C       0.55210   0.76543   0.75053 
C          C       0.50073   0.73485   0.75044 
C          C       0.50098   0.76536   0.75043 
O          O       0.54623   0.83589   0.75175 
H          H       0.56886   0.60754   0.75078 
H          H       0.46024   0.62021   0.75081 
H          H       0.56878   0.89310   0.75080 
H          H       0.46041   0.87843   0.75085 
H          H       0.47990   0.72412   0.75045 
H          H       0.48036   0.77649   0.75042 
N          N       0.57861   0.72245   0.75026 
N          N       0.57896   0.77664   0.75042 
S          S       0.60086   0.74941   0.75013 
C          C       0.96853   0.55589   0.74969 
C          C       0.97376   0.58690   0.75008 
C          C       0.96799   0.63731   0.75099 
C          C       0.95478   0.61045   0.75057 
H          H       0.93156   0.60768   0.75081 
N          N       0.99467   0.54120   0.74938 
N          N       0.94299   0.95468   0.74977 
C          C       0.96926   0.94374   0.74972 
N          N       0.99523   0.95861   0.74943 
C          C       0.00393   0.59046   0.75010 
O          O       0.00452   0.66979   0.75184 
B          B       0.97788   0.68445   0.75148 
O          O       0.95526   0.66431   0.75176 
C          C       0.97463   0.91281   0.75010 
C          C       0.00481   0.90933   0.75011 
C          C       0.01717   0.93824   0.74974 
C          C       0.01777   0.88205   0.75059 
C          C       0.99873   0.85901   0.75098 
C          C       0.96862   0.86245   0.75098 
C          C       0.95557   0.88936   0.75057 
O          O       0.95572   0.83552   0.75177 
B          B       0.97832   0.81533   0.75147 
C          C       0.97639   0.78184   0.75072 
C          C       0.00132   0.76506   0.75043 
C          C       0.00120   0.73455   0.75043 
C          C       0.97615   0.71796   0.75070 
C          C       0.95003   0.73428   0.75048 
O          O       0.00505   0.82986   0.75177 
H          H       0.04027   0.62010   0.75088 
H          H       0.04098   0.87934   0.75084 
H          H       0.93238   0.89229   0.75079 
H          H       0.02188   0.72351   0.75044 
H          H       0.02207   0.77595   0.75040 
N          N       0.92320   0.72299   0.75033 
N          N       0.92339   0.77719   0.75032 
S          S       0.90123   0.75017   0.75012 
C          C       0.52551   0.71788   0.75072 
C          C       0.55187   0.73394   0.75047 
C          C       0.95014   0.76572   0.75049 
N          N       0.54120   0.49441   0.74920 
N          N       0.54413   0.44209   0.74970 
C          C       0.51594   0.43796   0.74958 
C          C       0.50311   0.40932   0.75002 
C          C       0.47299   0.41327   0.75003 
C          C       0.46815   0.44431   0.74958 
C          C       0.45366   0.39002   0.75060 
C          C       0.46638   0.36296   0.75106 
C          C       0.49644   0.35914   0.75101 
C          C       0.51575   0.38192   0.75055 
O          O       0.50239   0.32997   0.75179 
B          B       0.47554   0.31568   0.75156 
O          O       0.45321   0.33615   0.75192 
N          N       0.54476   0.05768   0.74978 
C          C       0.51662   0.06214   0.74973 
N          N       0.49495   0.04147   0.74945 
C          C       0.46880   0.05597   0.74981 
C          C       0.47371   0.08699   0.75013 
C          C       0.50385   0.09093   0.75011 
C          C       0.51629   0.11849   0.75058 
C          C       0.49681   0.14120   0.75096 
C          C       0.46677   0.13730   0.75096 
C          C       0.45426   0.11014   0.75059 
C          C       0.43838   0.01641   0.74981 
C          C       0.38252   0.01728   0.75061 
C          C       0.35933   0.99849   0.75101 
N          N       0.44273   0.04457   0.74997 
O          O       0.50259   0.17043   0.75177 
B          B       0.47567   0.18462   0.75147 
C          C       0.47349   0.21816   0.75075 
C          C       0.44730   0.23441   0.75054 
C          C       0.49844   0.26542   0.75047 
C          C       0.49844   0.23491   0.75046 
O          O       0.45342   0.16406   0.75176 
H          H       0.43050   0.39317   0.75087 
H          H       0.53894   0.37898   0.75080 
H          H       0.43114   0.10675   0.75080 
H          H       0.53945   0.12173   0.75086 
H          H       0.51917   0.27637   0.75047 
H          H       0.51916   0.22396   0.75046 
N          N       0.42050   0.27724   0.75043 
N          N       0.42051   0.22305   0.75034 
S          S       0.39844   0.25015   0.75019 
C          C       0.03155   0.44411   0.74973 
C          C       0.02621   0.41310   0.75011 
C          C       0.03161   0.36263   0.75101 
C          C       0.04500   0.38940   0.75060 
H          H       0.06823   0.39196   0.75085 
N          N       0.00545   0.45888   0.74947 
N          N       0.05686   0.04529   0.74980 
C          C       0.03059   0.05628   0.74972 
N          N       0.00464   0.04134   0.74940 
C          C       0.99603   0.40967   0.75013 
O          O       0.99480   0.33038   0.75178 
B          B       0.02140   0.31560   0.75150 
O          O       0.04419   0.33555   0.75180 
C          C       0.02510   0.08723   0.75012 
C          C       0.99489   0.09058   0.75012 
C          C       0.98267   0.06165   0.74971 
C          C       0.98167   0.11774   0.75062 
C          C       0.00050   0.14094   0.75105 
C          C       0.03062   0.13765   0.75107 
C          C       0.04391   0.11088   0.75063 
O          O       0.04331   0.16464   0.75189 
B          B       0.02068   0.18474   0.75155 
C          C       0.02265   0.21824   0.75075 
C          C       0.99775   0.23506   0.75047 
C          C       0.99791   0.26557   0.75046 
C          C       0.02299   0.28210   0.75079 
C          C       0.04908   0.26576   0.75061 
O          O       0.99405   0.17007   0.75185 
H          H       0.95946   0.38034   0.75083 
H          H       0.95842   0.12019   0.75088 
H          H       0.06714   0.10826   0.75089 
H          H       0.97725   0.27666   0.75041 
H          H       0.97699   0.22419   0.75049 
N          N       0.07591   0.27703   0.75050 
N          N       0.07568   0.22284   0.75028 
S          S       0.09786   0.24985   0.75019 
C          C       0.47348   0.28214   0.75079 
C          C       0.44730   0.26588   0.75058 
C          C       0.04893   0.23432   0.75053 
Ni         Ni      0.50002  -0.00001   0.74862 
Ni         Ni      0.49997   0.49994   0.74833 
