data_crystal
 
_cell_length_a    22.04000
_cell_length_b    22.04000
_cell_length_c    7.45800
_cell_angle_alpha 90.00000
_cell_angle_beta  90.00000
_cell_angle_gamma 120.00000
 
_space_group_name_Hall 'P 1'
_space_group_name_H-M_alt  'P 1'
 
loop_
_symmetry_equiv_pos_as_xyz
 'x,y,z' 
 
loop_
_atom_site_label
_atom_site_type_symbol
_atom_site_fract_x
_atom_site_fract_y
_atom_site_fract_z
C          C       0.73676   0.38428   0.25000 
C          C       0.68630   0.40374   0.25000 
C          C       0.80937   0.43766   0.25000 
N          N       0.85496   0.41780   0.25000 
C          C       0.92807   0.46088   0.25000 
C          C       0.96696   0.42724   0.25000 
C          C       0.03890   0.46595   0.25000 
H          H       0.70235   0.45878   0.25000 
H          H       0.82347   0.49198   0.25000 
H          H       0.94114   0.37073   0.25000 
H          H       0.06724   0.43798   0.25000 
C          C       0.61572   0.35248   0.25000 
C          C       0.59626   0.28256   0.25000 
C          C       0.56234   0.37171   0.25000 
N          N       0.58220   0.43716   0.25000 
C          C       0.53912   0.46719   0.25000 
C          C       0.57276   0.53972   0.25000 
C          C       0.53405   0.57295   0.25000 
H          H       0.54122   0.24357   0.25000 
H          H       0.50802   0.33149   0.25000 
H          H       0.62927   0.57041   0.25000 
H          H       0.56202   0.62926   0.25000 
C          C       0.64752   0.26324   0.25000 
C          C       0.71744   0.31370   0.25000 
C          C       0.62829   0.19063   0.25000 
N          N       0.56284   0.14504   0.25000 
C          C       0.53281   0.07193   0.25000 
C          C       0.46028   0.03304   0.25000 
C          C       0.42705   0.96110   0.25000 
H          H       0.75643   0.29765   0.25000 
H          H       0.66851   0.17653   0.25000 
H          H       0.42959   0.05886   0.25000 
H          H       0.37074   0.93276   0.25000 
C          C       0.26324   0.61572   0.25000 
C          C       0.31370   0.59626   0.25000 
C          C       0.19063   0.56234   0.25000 
N          N       0.14504   0.58220   0.25000 
C          C       0.07193   0.53912   0.25000 
C          C       0.03304   0.57276   0.25000 
C          C       0.96110   0.53405   0.25000 
H          H       0.29765   0.54122   0.25000 
H          H       0.17653   0.50802   0.25000 
H          H       0.05886   0.62927   0.25000 
H          H       0.93276   0.56202   0.25000 
C          C       0.38428   0.64752   0.25000 
C          C       0.40374   0.71744   0.25000 
C          C       0.43766   0.62829   0.25000 
N          N       0.41780   0.56284   0.25000 
C          C       0.46088   0.53281   0.25000 
C          C       0.42724   0.46028   0.25000 
C          C       0.46595   0.42705   0.25000 
H          H       0.45878   0.75643   0.25000 
H          H       0.49198   0.66851   0.25000 
H          H       0.37073   0.42959   0.25000 
H          H       0.43798   0.37074   0.25000 
C          C       0.35248   0.73676   0.25000 
C          C       0.28256   0.68630   0.25000 
C          C       0.37171   0.80937   0.25000 
N          N       0.43716   0.85496   0.25000 
C          C       0.46719   0.92807   0.25000 
C          C       0.53972   0.96696   0.25000 
C          C       0.57295   0.03890   0.25000 
H          H       0.24357   0.70235   0.25000 
H          H       0.33149   0.82347   0.25000 
H          H       0.57041   0.94114   0.25000 
H          H       0.62926   0.06724   0.25000 
C          C       0.73676   0.38428   0.75000 
C          C       0.68630   0.40374   0.75000 
C          C       0.80937   0.43766   0.75000 
N          N       0.85496   0.41780   0.75000 
C          C       0.92807   0.46088   0.75000 
C          C       0.96696   0.42724   0.75000 
C          C       0.03890   0.46595   0.75000 
H          H       0.70235   0.45878   0.75000 
H          H       0.82347   0.49198   0.75000 
H          H       0.94114   0.37073   0.75000 
H          H       0.06724   0.43798   0.75000 
C          C       0.61572   0.35248   0.75000 
C          C       0.59626   0.28256   0.75000 
C          C       0.56234   0.37171   0.75000 
N          N       0.58220   0.43716   0.75000 
C          C       0.53912   0.46719   0.75000 
C          C       0.57276   0.53972   0.75000 
C          C       0.53405   0.57295   0.75000 
H          H       0.54122   0.24357   0.75000 
H          H       0.50802   0.33149   0.75000 
H          H       0.62927   0.57041   0.75000 
H          H       0.56202   0.62926   0.75000 
C          C       0.64752   0.26324   0.75000 
C          C       0.71744   0.31370   0.75000 
C          C       0.62829   0.19063   0.75000 
N          N       0.56284   0.14504   0.75000 
C          C       0.53281   0.07193   0.75000 
C          C       0.46028   0.03304   0.75000 
C          C       0.42705   0.96110   0.75000 
H          H       0.75643   0.29765   0.75000 
H          H       0.66851   0.17653   0.75000 
H          H       0.42959   0.05886   0.75000 
H          H       0.37074   0.93276   0.75000 
C          C       0.26324   0.61572   0.75000 
C          C       0.31370   0.59626   0.75000 
C          C       0.19063   0.56234   0.75000 
N          N       0.14504   0.58220   0.75000 
C          C       0.07193   0.53912   0.75000 
C          C       0.03304   0.57276   0.75000 
C          C       0.96110   0.53405   0.75000 
H          H       0.29765   0.54122   0.75000 
H          H       0.17653   0.50802   0.75000 
H          H       0.05886   0.62927   0.75000 
H          H       0.93276   0.56202   0.75000 
C          C       0.38428   0.64752   0.75000 
C          C       0.40374   0.71744   0.75000 
C          C       0.43766   0.62829   0.75000 
N          N       0.41780   0.56284   0.75000 
C          C       0.46088   0.53281   0.75000 
C          C       0.42724   0.46028   0.75000 
C          C       0.46595   0.42705   0.75000 
H          H       0.45878   0.75643   0.75000 
H          H       0.49198   0.66851   0.75000 
H          H       0.37073   0.42959   0.75000 
H          H       0.43798   0.37074   0.75000 
C          C       0.35248   0.73676   0.75000 
C          C       0.28256   0.68630   0.75000 
C          C       0.37171   0.80937   0.75000 
N          N       0.43716   0.85496   0.75000 
C          C       0.46719   0.92807   0.75000 
C          C       0.53972   0.96696   0.75000 
C          C       0.57295   0.03890   0.75000 
H          H       0.24357   0.70235   0.75000 
H          H       0.33149   0.82347   0.75000 
H          H       0.57041   0.94114   0.75000 
H          H       0.62926   0.06724   0.75000 
