data_crystal

_cell_length_a    42.81830
_cell_length_b    42.10560
_cell_length_c    14.78520
_cell_angle_alpha 90.00000
_cell_angle_beta  90.00000
_cell_angle_gamma 90.00000

_space_group_name_Hall 'P 1'
_space_group_name_H-M_alt  'P 1'

loop_
_symmetry_equiv_pos_as_xyz
'x,y,z' 

loop_
_atom_site_label
_atom_site_type_symbol
_atom_site_fract_x
_atom_site_fract_y
_atom_site_fract_z
C          C       0.41922   0.41710   0.00000 
C          C       0.91922   0.91710   0.00000 
C          C       0.58078   0.58289   0.00000 
C          C       0.08078   0.08290   0.00000 
C          C       0.58078   0.41710   0.00000 
C          C       0.08078   0.91710   0.00000 
C          C       0.41922   0.58289   0.00000 
C          C       0.91922   0.08290   0.00000 
C          C       0.29117   0.29061  -0.09613 
C          C       0.79117   0.79060  -0.09613 
C          C       0.70883   0.70939  -0.09613 
C          C       0.20883   0.20939  -0.09613 
C          C       0.70883   0.29061   0.09613 
C          C       0.20883   0.79060   0.09613 
C          C       0.29117   0.70939   0.09613 
C          C       0.79117   0.20939   0.09613 
C          C       0.70883   0.70939   0.09613 
C          C       0.20883   0.20939   0.09613 
C          C       0.29117   0.29061   0.09613 
C          C       0.79117   0.79060   0.09613 
C          C       0.29117   0.70939  -0.09613 
C          C       0.79117   0.20939  -0.09613 
C          C       0.70883   0.29061  -0.09613 
C          C       0.20883   0.79060  -0.09613 
C          C       0.27058   0.27030  -0.04836 
C          C       0.77058   0.77029  -0.04836 
C          C       0.72942   0.72970  -0.04836 
C          C       0.22942   0.22970  -0.04836 
C          C       0.72942   0.27030   0.04836 
C          C       0.22942   0.77029   0.04836 
C          C       0.27058   0.72970   0.04836 
C          C       0.77058   0.22970   0.04836 
C          C       0.72942   0.72970   0.04836 
C          C       0.22942   0.22970   0.04836 
C          C       0.27058   0.27030   0.04836 
C          C       0.77058   0.77029   0.04836 
C          C       0.27058   0.72970  -0.04836 
C          C       0.77058   0.22970  -0.04836 
C          C       0.72942   0.27030  -0.04836 
C          C       0.22942   0.77029  -0.04836 
N          N       0.54923   0.50000   0.00000 
N          N       0.04923   0.00000   0.00000 
N          N       0.45077   0.50000   0.00000 
N          N       0.95077   0.00000   0.00000 
H          H       0.52660   0.50000   0.00000 
H          H       0.02660   0.00000   0.00000 
H          H       0.47340   0.50000   0.00000 
H          H       0.97340   0.00000   0.00000 
C          C       0.56753   0.47342   0.00000 
C          C       0.06753   0.97342   0.00000 
C          C       0.43247   0.52658   0.00000 
C          C       0.93247   0.02658   0.00000 
C          C       0.43247   0.47342   0.00000 
C          C       0.93247   0.97342   0.00000 
C          C       0.56753   0.52658   0.00000 
C          C       0.06753   0.02658   0.00000 
C          C       0.59920   0.48413   0.00000 
C          C       0.09920   0.98413   0.00000 
C          C       0.40080   0.51587   0.00000 
C          C       0.90080   0.01587   0.00000 
C          C       0.40080   0.48413   0.00000 
C          C       0.90080   0.98413   0.00000 
C          C       0.59920   0.51587   0.00000 
C          C       0.09920   0.01587   0.00000 
H          H       0.29184   0.29127  -0.16504 
H          H       0.79184   0.79127  -0.16504 
H          H       0.70816   0.70873  -0.16504 
H          H       0.20816   0.20873  -0.16504 
H          H       0.70816   0.29127   0.16504 
H          H       0.20816   0.79127   0.16504 
H          H       0.29184   0.70873   0.16504 
H          H       0.79184   0.20873   0.16504 
H          H       0.70816   0.70873   0.16504 
H          H       0.20816   0.20873   0.16504 
H          H       0.29184   0.29127   0.16504 
H          H       0.79184   0.79127   0.16504 
H          H       0.29184   0.70873  -0.16504 
H          H       0.79184   0.20873  -0.16504 
H          H       0.70816   0.29127  -0.16504 
H          H       0.20816   0.79127  -0.16504 
H          H       0.61875   0.47022   0.00000 
H          H       0.11875   0.97022   0.00000 
H          H       0.38125   0.52978   0.00000 
H          H       0.88125   0.02978   0.00000 
H          H       0.38125   0.47022   0.00000 
H          H       0.88125   0.97022   0.00000 
H          H       0.61875   0.52978   0.00000 
H          H       0.11875   0.02978   0.00000 
N          N       0.50000   0.44890   0.00000 
N          N       0.00000   0.94890   0.00000 
N          N       0.50000   0.55110   0.00000 
N          N      -0.00000   0.05110   0.00000 
C          C       0.52632   0.43052   0.00000 
C          C       0.02632   0.93052   0.00000 
C          C       0.47368   0.56948   0.00000 
C          C       0.97368   0.06948   0.00000 
C          C       0.47368   0.43052   0.00000 
C          C       0.97368   0.93052   0.00000 
C          C       0.52632   0.56948   0.00000 
C          C       0.02632   0.06948   0.00000 
C          C       0.51642   0.39894   0.00000 
C          C       0.01642   0.89894   0.00000 
C          C       0.48358   0.60106   0.00000 
C          C       0.98358   0.10106   0.00000 
C          C       0.48358   0.39894   0.00000 
C          C       0.98358   0.89894   0.00000 
C          C       0.51642   0.60106   0.00000 
C          C       0.01642   0.10106   0.00000 
H          H       0.53016   0.37909   0.00000 
H          H       0.03016   0.87909   0.00000 
H          H       0.46984   0.62091   0.00000 
H          H       0.96984   0.12091   0.00000 
H          H       0.46984   0.37909   0.00000 
H          H       0.96984   0.87909   0.00000 
H          H       0.53016   0.62091   0.00000 
H          H       0.03016   0.12091   0.00000 
C          C       0.55784   0.44044   0.00000 
C          C       0.05784   0.94044   0.00000 
C          C       0.44216   0.55956   0.00000 
C          C       0.94216   0.05956   0.00000 
C          C       0.44216   0.44044   0.00000 
C          C       0.94216   0.94044   0.00000 
C          C       0.55784   0.55956   0.00000 
C          C       0.05784   0.05956   0.00000 
C          C       0.09309   0.09523  -0.08243 
C          C       0.59309   0.59522  -0.08243 
C          C       0.90691   0.90477  -0.08243 
C          C       0.40691   0.40477  -0.08243 
C          C       0.90691   0.09523   0.08243 
C          C       0.40691   0.59522   0.08243 
C          C       0.09309   0.90477   0.08243 
C          C       0.59309   0.40477   0.08243 
C          C       0.90691   0.90477   0.08243 
C          C       0.40691   0.40477   0.08243 
C          C       0.09309   0.09523   0.08243 
C          C       0.59309   0.59522   0.08243 
C          C       0.09309   0.90477  -0.08243 
C          C       0.59309   0.40477  -0.08243 
C          C       0.90691   0.09523  -0.08243 
C          C       0.40691   0.59522  -0.08243 
C          C       0.11668   0.11851  -0.08238 
C          C       0.61668   0.61851  -0.08238 
C          C       0.88332   0.88149  -0.08238 
C          C       0.38332   0.38149  -0.08238 
C          C       0.88332   0.11851   0.08238 
C          C       0.38332   0.61851   0.08238 
C          C       0.11668   0.88149   0.08238 
C          C       0.61668   0.38149   0.08238 
C          C       0.88332   0.88149   0.08238 
C          C       0.38332   0.38149   0.08238 
C          C       0.11668   0.11851   0.08238 
C          C       0.61668   0.61851   0.08238 
C          C       0.11668   0.88149  -0.08238 
C          C       0.61668   0.38149  -0.08238 
C          C       0.88332   0.11851  -0.08238 
C          C       0.38332   0.61851  -0.08238 
O          O       0.16764   0.16877  -0.07982 
O          O       0.66764   0.66876  -0.07982 
O          O       0.83236   0.83123  -0.07982 
O          O       0.33236   0.33123  -0.07982 
O          O       0.83236   0.16877   0.07982 
O          O       0.33236   0.66876   0.07982 
O          O       0.16764   0.83123   0.07982 
O          O       0.66764   0.33123   0.07982 
O          O       0.83236   0.83123   0.07982 
O          O       0.33236   0.33123   0.07982 
O          O       0.16764   0.16877   0.07982 
O          O       0.66764   0.66876   0.07982 
O          O       0.16764   0.83123  -0.07982 
O          O       0.66764   0.33123  -0.07982 
O          O       0.83236   0.16877  -0.07982 
O          O       0.33236   0.66876  -0.07982 
C          C       0.31127   0.31043  -0.04720 
C          C       0.81127   0.81042  -0.04720 
C          C       0.68873   0.68957  -0.04720 
C          C       0.18873   0.18957  -0.04720 
C          C       0.68873   0.31043   0.04720 
C          C       0.18873   0.81042   0.04720 
C          C       0.31127   0.68957   0.04720 
C          C       0.81127   0.18957   0.04720 
C          C       0.68873   0.68957   0.04720 
C          C       0.18873   0.18957   0.04720 
C          C       0.31127   0.31043   0.04720 
C          C       0.81127   0.81042   0.04720 
C          C       0.31127   0.68957  -0.04720 
C          C       0.81127   0.18957  -0.04720 
C          C       0.68873   0.31043  -0.04720 
C          C       0.18873   0.81042  -0.04720 
C          C       0.37164   0.63090   0.00000 
C          C       0.87164   0.13090   0.00000 
C          C       0.62836   0.36910   0.00000 
C          C       0.12836   0.86910   0.00000 
C          C       0.62836   0.63090   0.00000 
C          C       0.12836   0.13090   0.00000 
C          C       0.37164   0.36910   0.00000 
C          C       0.87164   0.86910   0.00000 
B          B       0.34665   0.65554   0.00000 
B          B       0.84665   0.15554   0.00000 
B          B       0.65335   0.34445   0.00000 
B          B       0.15335   0.84445   0.00000 
B          B       0.65335   0.65554   0.00000 
B          B       0.15335   0.15554   0.00000 
B          B       0.34665   0.34445   0.00000 
B          B       0.84665   0.84445   0.00000 
C          C       0.25000   0.25000  -0.09545 
C          C       0.75000   0.75000  -0.09545 
C          C       0.75000   0.25000   0.09545 
C          C       0.25000   0.75000   0.09545 
C          C       0.75000   0.75000   0.09545 
C          C       0.25000   0.25000   0.09545 
C          C       0.25000   0.75000  -0.09545 
C          C       0.75000   0.25000  -0.09545 
H          H       0.08467   0.08693  -0.14285 
H          H       0.58467   0.58693  -0.14285 
H          H       0.91533   0.91307  -0.14285 
H          H       0.41533   0.41307  -0.14285 
H          H       0.91533   0.08693   0.14285 
H          H       0.41533   0.58693   0.14285 
H          H       0.08467   0.91307   0.14285 
H          H       0.58467   0.41307   0.14285 
H          H       0.91533   0.91307   0.14285 
H          H       0.41533   0.41307   0.14285 
H          H       0.08467   0.08693   0.14285 
H          H       0.58467   0.58693   0.14285 
H          H       0.08467   0.91307  -0.14285 
H          H       0.58467   0.41307  -0.14285 
H          H       0.91533   0.08693  -0.14285 
H          H       0.41533   0.58693  -0.14285 
H          H       0.12507   0.12679  -0.14292 
H          H       0.62507   0.62679  -0.14292 
H          H       0.87493   0.87321  -0.14292 
H          H       0.37493   0.37321  -0.14292 
H          H       0.87493   0.12679   0.14292 
H          H       0.37493   0.62679   0.14292 
H          H       0.12507   0.87321   0.14292 
H          H       0.62507   0.37321   0.14292 
H          H       0.87493   0.87321   0.14292 
H          H       0.37493   0.37321   0.14292 
H          H       0.12507   0.12679   0.14292 
H          H       0.62507   0.62679   0.14292 
H          H       0.12507   0.87321  -0.14292 
H          H       0.62507   0.37321  -0.14292 
H          H       0.87493   0.12679  -0.14292 
H          H       0.37493   0.62679  -0.14292 
H          H       0.25000   0.25000  -0.16463 
H          H       0.75000   0.75000  -0.16463 
H          H       0.75000   0.25000   0.16463 
H          H       0.25000   0.75000   0.16463 
H          H       0.75000   0.75000   0.16463 
H          H       0.25000   0.25000   0.16463 
H          H       0.25000   0.75000  -0.16463 
H          H       0.75000   0.25000  -0.16463 
C          C       0.41922   0.41710   0.50000 
C          C       0.91922   0.91710   0.50000 
C          C       0.58078   0.58289   0.50000 
C          C       0.08078   0.08290   0.50000 
C          C       0.58078   0.41710   0.50000 
C          C       0.08078   0.91710   0.50000 
C          C       0.41922   0.58289   0.50000 
C          C       0.91922   0.08290   0.50000 
C          C       0.29117   0.29061   0.40388 
C          C       0.79117   0.79060   0.40388 
C          C       0.70883   0.70939   0.40388 
C          C       0.20883   0.20939   0.40388 
C          C       0.70883   0.29061   0.59613 
C          C       0.20883   0.79060   0.59613 
C          C       0.29117   0.70939   0.59613 
C          C       0.79117   0.20939   0.59613 
C          C       0.70883   0.70939   0.59613 
C          C       0.20883   0.20939   0.59613 
C          C       0.29117   0.29061   0.59613 
C          C       0.79117   0.79060   0.59613 
C          C       0.29117   0.70939   0.40388 
C          C       0.79117   0.20939   0.40388 
C          C       0.70883   0.29061   0.40388 
C          C       0.20883   0.79060   0.40388 
C          C       0.27058   0.27030   0.45164 
C          C       0.77058   0.77029   0.45164 
C          C       0.72942   0.72970   0.45164 
C          C       0.22942   0.22970   0.45164 
C          C       0.72942   0.27030   0.54836 
C          C       0.22942   0.77029   0.54836 
C          C       0.27058   0.72970   0.54836 
C          C       0.77058   0.22970   0.54836 
C          C       0.72942   0.72970   0.54836 
C          C       0.22942   0.22970   0.54836 
C          C       0.27058   0.27030   0.54836 
C          C       0.77058   0.77029   0.54836 
C          C       0.27058   0.72970   0.45164 
C          C       0.77058   0.22970   0.45164 
C          C       0.72942   0.27030   0.45164 
C          C       0.22942   0.77029   0.45164 
N          N       0.54923   0.50000   0.50000 
N          N       0.04923  -0.00000   0.50000 
N          N       0.45077   0.50000   0.50000 
N          N       0.95077  -0.00000   0.50000 
H          H       0.52660   0.50000   0.50000 
H          H       0.02660  -0.00000   0.50000 
H          H       0.47340   0.50000   0.50000 
H          H       0.97340  -0.00000   0.50000 
C          C       0.56753   0.47342   0.50000 
C          C       0.06753   0.97342   0.50000 
C          C       0.43247   0.52658   0.50000 
C          C       0.93247   0.02658   0.50000 
C          C       0.43247   0.47342   0.50000 
C          C       0.93247   0.97342   0.50000 
C          C       0.56753   0.52658   0.50000 
C          C       0.06753   0.02658   0.50000 
C          C       0.59920   0.48413   0.50000 
C          C       0.09920   0.98413   0.50000 
C          C       0.40080   0.51587   0.50000 
C          C       0.90080   0.01587   0.50000 
C          C       0.40080   0.48413   0.50000 
C          C       0.90080   0.98413   0.50000 
C          C       0.59920   0.51587   0.50000 
C          C       0.09920   0.01587   0.50000 
H          H       0.29184   0.29127   0.33496 
H          H       0.79184   0.79127   0.33496 
H          H       0.70816   0.70873   0.33496 
H          H       0.20816   0.20873   0.33496 
H          H       0.70816   0.29127   0.66504 
H          H       0.20816   0.79127   0.66504 
H          H       0.29184   0.70873   0.66504 
H          H       0.79184   0.20873   0.66504 
H          H       0.70816   0.70873   0.66504 
H          H       0.20816   0.20873   0.66504 
H          H       0.29184   0.29127   0.66504 
H          H       0.79184   0.79127   0.66504 
H          H       0.29184   0.70873   0.33496 
H          H       0.79184   0.20873   0.33496 
H          H       0.70816   0.29127   0.33496 
H          H       0.20816   0.79127   0.33496 
H          H       0.61875   0.47022   0.50000 
H          H       0.11875   0.97022   0.50000 
H          H       0.38125   0.52978   0.50000 
H          H       0.88125   0.02978   0.50000 
H          H       0.38125   0.47022   0.50000 
H          H       0.88125   0.97022   0.50000 
H          H       0.61875   0.52978   0.50000 
H          H       0.11875   0.02978   0.50000 
N          N       0.50000   0.44890   0.50000 
N          N       0.00000   0.94890   0.50000 
N          N       0.50000   0.55110   0.50000 
N          N      -0.00000   0.05110   0.50000 
C          C       0.52632   0.43052   0.50000 
C          C       0.02632   0.93052   0.50000 
C          C       0.47368   0.56948   0.50000 
C          C       0.97368   0.06948   0.50000 
C          C       0.47368   0.43052   0.50000 
C          C       0.97368   0.93052   0.50000 
C          C       0.52632   0.56948   0.50000 
C          C       0.02632   0.06948   0.50000 
C          C       0.51642   0.39894   0.50000 
C          C       0.01642   0.89894   0.50000 
C          C       0.48358   0.60106   0.50000 
C          C       0.98358   0.10106   0.50000 
C          C       0.48358   0.39894   0.50000 
C          C       0.98358   0.89894   0.50000 
C          C       0.51642   0.60106   0.50000 
C          C       0.01642   0.10106   0.50000 
H          H       0.53016   0.37909   0.50000 
H          H       0.03016   0.87909   0.50000 
H          H       0.46984   0.62091   0.50000 
H          H       0.96984   0.12091   0.50000 
H          H       0.46984   0.37909   0.50000 
H          H       0.96984   0.87909   0.50000 
H          H       0.53016   0.62091   0.50000 
H          H       0.03016   0.12091   0.50000 
C          C       0.55784   0.44044   0.50000 
C          C       0.05784   0.94044   0.50000 
C          C       0.44216   0.55956   0.50000 
C          C       0.94216   0.05956   0.50000 
C          C       0.44216   0.44044   0.50000 
C          C       0.94216   0.94044   0.50000 
C          C       0.55784   0.55956   0.50000 
C          C       0.05784   0.05956   0.50000 
C          C       0.09309   0.09523   0.41757 
C          C       0.59309   0.59522   0.41757 
C          C       0.90691   0.90477   0.41757 
C          C       0.40691   0.40477   0.41757 
C          C       0.90691   0.09523   0.58243 
C          C       0.40691   0.59522   0.58243 
C          C       0.09309   0.90477   0.58243 
C          C       0.59309   0.40477   0.58243 
C          C       0.90691   0.90477   0.58243 
C          C       0.40691   0.40477   0.58243 
C          C       0.09309   0.09523   0.58243 
C          C       0.59309   0.59522   0.58243 
C          C       0.09309   0.90477   0.41757 
C          C       0.59309   0.40477   0.41757 
C          C       0.90691   0.09523   0.41757 
C          C       0.40691   0.59522   0.41757 
C          C       0.11668   0.11851   0.41762 
C          C       0.61668   0.61851   0.41762 
C          C       0.88332   0.88149   0.41762 
C          C       0.38332   0.38149   0.41762 
C          C       0.88332   0.11851   0.58238 
C          C       0.38332   0.61851   0.58238 
C          C       0.11668   0.88149   0.58238 
C          C       0.61668   0.38149   0.58238 
C          C       0.88332   0.88149   0.58238 
C          C       0.38332   0.38149   0.58238 
C          C       0.11668   0.11851   0.58238 
C          C       0.61668   0.61851   0.58238 
C          C       0.11668   0.88149   0.41762 
C          C       0.61668   0.38149   0.41762 
C          C       0.88332   0.11851   0.41762 
C          C       0.38332   0.61851   0.41762 
O          O       0.16764   0.16877   0.42018 
O          O       0.66764   0.66876   0.42018 
O          O       0.83236   0.83123   0.42018 
O          O       0.33236   0.33123   0.42018 
O          O       0.83236   0.16877   0.57983 
O          O       0.33236   0.66876   0.57983 
O          O       0.16764   0.83123   0.57983 
O          O       0.66764   0.33123   0.57983 
O          O       0.83236   0.83123   0.57983 
O          O       0.33236   0.33123   0.57983 
O          O       0.16764   0.16877   0.57983 
O          O       0.66764   0.66876   0.57983 
O          O       0.16764   0.83123   0.42018 
O          O       0.66764   0.33123   0.42018 
O          O       0.83236   0.16877   0.42018 
O          O       0.33236   0.66876   0.42018 
C          C       0.31127   0.31043   0.45281 
C          C       0.81127   0.81042   0.45281 
C          C       0.68873   0.68957   0.45281 
C          C       0.18873   0.18957   0.45281 
C          C       0.68873   0.31043   0.54719 
C          C       0.18873   0.81042   0.54719 
C          C       0.31127   0.68957   0.54719 
C          C       0.81127   0.18957   0.54719 
C          C       0.68873   0.68957   0.54719 
C          C       0.18873   0.18957   0.54719 
C          C       0.31127   0.31043   0.54719 
C          C       0.81127   0.81042   0.54719 
C          C       0.31127   0.68957   0.45281 
C          C       0.81127   0.18957   0.45281 
C          C       0.68873   0.31043   0.45281 
C          C       0.18873   0.81042   0.45281 
C          C       0.37164   0.63090   0.50000 
C          C       0.87164   0.13090   0.50000 
C          C       0.62836   0.36910   0.50000 
C          C       0.12836   0.86910   0.50000 
C          C       0.62836   0.63090   0.50000 
C          C       0.12836   0.13090   0.50000 
C          C       0.37164   0.36910   0.50000 
C          C       0.87164   0.86910   0.50000 
B          B       0.34665   0.65554   0.50000 
B          B       0.84665   0.15554   0.50000 
B          B       0.65335   0.34445   0.50000 
B          B       0.15335   0.84445   0.50000 
B          B       0.65335   0.65554   0.50000 
B          B       0.15335   0.15554   0.50000 
B          B       0.34665   0.34445   0.50000 
B          B       0.84665   0.84445   0.50000 
C          C       0.25000   0.25000   0.40455 
C          C       0.75000   0.75000   0.40455 
C          C       0.75000   0.25000   0.59545 
C          C       0.25000   0.75000   0.59545 
C          C       0.75000   0.75000   0.59545 
C          C       0.25000   0.25000   0.59545 
C          C       0.25000   0.75000   0.40455 
C          C       0.75000   0.25000   0.40455 
H          H       0.08467   0.08693   0.35715 
H          H       0.58467   0.58693   0.35715 
H          H       0.91533   0.91307   0.35715 
H          H       0.41533   0.41307   0.35715 
H          H       0.91533   0.08693   0.64285 
H          H       0.41533   0.58693   0.64285 
H          H       0.08467   0.91307   0.64285 
H          H       0.58467   0.41307   0.64285 
H          H       0.91533   0.91307   0.64285 
H          H       0.41533   0.41307   0.64285 
H          H       0.08467   0.08693   0.64285 
H          H       0.58467   0.58693   0.64285 
H          H       0.08467   0.91307   0.35715 
H          H       0.58467   0.41307   0.35715 
H          H       0.91533   0.08693   0.35715 
H          H       0.41533   0.58693   0.35715 
H          H       0.12507   0.12679   0.35708 
H          H       0.62507   0.62679   0.35708 
H          H       0.87493   0.87321   0.35708 
H          H       0.37493   0.37321   0.35708 
H          H       0.87493   0.12679   0.64292 
H          H       0.37493   0.62679   0.64292 
H          H       0.12507   0.87321   0.64292 
H          H       0.62507   0.37321   0.64292 
H          H       0.87493   0.87321   0.64292 
H          H       0.37493   0.37321   0.64292 
H          H       0.12507   0.12679   0.64292 
H          H       0.62507   0.62679   0.64292 
H          H       0.12507   0.87321   0.35708 
H          H       0.62507   0.37321   0.35708 
H          H       0.87493   0.12679   0.35708 
H          H       0.37493   0.62679   0.35708 
H          H       0.25000   0.25000   0.33537 
H          H       0.75000   0.75000   0.33537 
H          H       0.75000   0.25000   0.66463 
H          H       0.25000   0.75000   0.66463 
H          H       0.75000   0.75000   0.66463 
H          H       0.25000   0.25000   0.66463 
H          H       0.25000   0.75000   0.33537 
H          H       0.75000   0.25000   0.33537 
