data_crystal

_cell_length_a    46.90900
_cell_length_b    46.90900
_cell_length_c    6.73800
_cell_angle_alpha 90.00000
_cell_angle_beta  90.00000
_cell_angle_gamma 120.00000

_space_group_name_Hall 'P 1'
_space_group_name_H-M_alt  'P 1'

loop_
_symmetry_equiv_pos_as_xyz
'x,y,z' 

loop_
_atom_site_label
_atom_site_type_symbol
_atom_site_fract_x
_atom_site_fract_y
_atom_site_fract_z
C          C       0.98099   0.49059   0.25000 
C          C       0.50941   0.49040   0.25000 
C          C       0.50960   0.01901   0.25000 
C          C       0.01901   0.50941   0.25000 
C          C       0.49059   0.50960   0.25000 
C          C       0.49040   0.98099   0.25000 
C          C       0.95083   0.47555   0.25000 
C          C       0.52445   0.47528   0.25000 
C          C       0.52472   0.04917   0.25000 
C          C       0.04917   0.52445   0.25000 
C          C       0.47555   0.52472   0.25000 
C          C       0.47528   0.95083   0.25000 
C          C       0.91465   0.45744   0.25000 
C          C       0.54256   0.45721   0.25000 
C          C       0.54279   0.08535   0.25000 
C          C       0.08535   0.54256   0.25000 
C          C       0.45744   0.54279   0.25000 
C          C       0.45721   0.91465   0.25000 
C          C       0.89680   0.47412   0.25000 
C          C       0.52588   0.42268   0.25000 
C          C       0.57732   0.10320   0.25000 
C          C       0.10320   0.52588   0.25000 
C          C       0.47412   0.57732   0.25000 
C          C       0.42268   0.89680   0.25000 
C          C       0.47412   0.89680   0.25000 
C          C       0.42268   0.52588   0.25000 
C          C       0.10320   0.57732   0.25000 
C          C       0.52588   0.10320   0.25000 
C          C       0.57732   0.47412   0.25000 
C          C       0.89680   0.42268   0.25000 
C          C       0.86209   0.45670   0.25000 
C          C       0.54330   0.40540   0.25000 
C          C       0.59460   0.13791   0.25000 
C          C       0.13791   0.54330   0.25000 
C          C       0.45670   0.59460   0.25000 
C          C       0.40540   0.86209   0.25000 
C          C       0.45670   0.86209   0.25000 
C          C       0.40540   0.54330   0.25000 
C          C       0.13791   0.59460   0.25000 
C          C       0.54330   0.13791   0.25000 
C          C       0.59460   0.45670   0.25000 
C          C       0.86209   0.40540   0.25000 
C          C       0.84434   0.42215   0.25000 
C          C       0.57785   0.42219   0.25000 
C          C       0.57781   0.15566   0.25000 
C          C       0.15566   0.57785   0.25000 
C          C       0.42215   0.57781   0.25000 
C          C       0.42219   0.84434   0.25000 
C          C       0.75551   0.39131   0.25000 
C          C       0.60869   0.36420   0.25000 
C          C       0.63580   0.24449   0.25000 
C          C       0.24449   0.60869   0.25000 
C          C       0.39131   0.63580   0.25000 
C          C       0.36420   0.75551   0.25000 
C          C       0.39131   0.75551   0.25000 
C          C       0.36420   0.60869   0.25000 
C          C       0.24449   0.63580   0.25000 
C          C       0.60869   0.24449   0.25000 
C          C       0.63580   0.39131   0.25000 
C          C       0.75551   0.36420   0.25000 
C          C       0.72604   0.39213   0.25000 
C          C       0.60787   0.33391   0.25000 
C          C       0.66609   0.27396   0.25000 
C          C       0.27396   0.60787   0.25000 
C          C       0.39213   0.66609   0.25000 
C          C       0.33391   0.72604   0.25000 
C          C       0.39213   0.72604   0.25000 
C          C       0.33391   0.60787   0.25000 
C          C       0.27396   0.66609   0.25000 
C          C       0.60787   0.27396   0.25000 
C          C       0.66609   0.39213   0.25000 
C          C       0.72604   0.33391   0.25000 
C          C       0.69536   0.36222   0.25000 
C          C       0.63778   0.33314   0.25000 
C          C       0.66686   0.30464   0.25000 
C          C       0.30464   0.63778   0.25000 
C          C       0.36222   0.66686   0.25000 
C          C       0.33314   0.69536   0.25000 
C          C       0.36222   0.69536   0.25000 
C          C       0.33314   0.63778   0.25000 
C          C       0.30464   0.66686   0.25000 
C          C       0.63778   0.30464   0.25000 
C          C       0.66686   0.36222   0.25000 
C          C       0.69536   0.33314   0.25000 
B          B       0.80494   0.40220   0.25000 
B          B       0.59780   0.40273   0.25000 
B          B       0.59726   0.19506   0.25000 
B          B       0.19506   0.59780   0.25000 
B          B       0.40220   0.59726   0.25000 
B          B       0.40274   0.80494   0.25000 
O          O       0.78501   0.36602   0.25000 
O          O       0.63398   0.41899   0.25000 
O          O       0.58101   0.21499   0.25000 
O          O       0.21499   0.63398   0.25000 
O          O       0.36602   0.58101   0.25000 
O          O       0.41899   0.78501   0.25000 
O          O       0.36602   0.78501   0.25000 
O          O       0.41899   0.63398   0.25000 
O          O       0.21499   0.58101   0.25000 
O          O       0.63398   0.21499   0.25000 
O          O       0.58101   0.36602   0.25000 
O          O       0.78501   0.41899   0.25000 
C          C       0.98099   0.49059   0.75000 
C          C       0.50941   0.49040   0.75000 
C          C       0.50960   0.01901   0.75000 
C          C       0.01901   0.50941   0.75000 
C          C       0.49059   0.50960   0.75000 
C          C       0.49040   0.98099   0.75000 
C          C       0.95083   0.47555   0.75000 
C          C       0.52445   0.47528   0.75000 
C          C       0.52472   0.04917   0.75000 
C          C       0.04917   0.52445   0.75000 
C          C       0.47555   0.52472   0.75000 
C          C       0.47528   0.95083   0.75000 
C          C       0.91465   0.45744   0.75000 
C          C       0.54256   0.45721   0.75000 
C          C       0.54279   0.08535   0.75000 
C          C       0.08535   0.54256   0.75000 
C          C       0.45744   0.54279   0.75000 
C          C       0.45721   0.91465   0.75000 
C          C       0.89680   0.47412   0.75000 
C          C       0.52588   0.42268   0.75000 
C          C       0.57732   0.10320   0.75000 
C          C       0.10320   0.52588   0.75000 
C          C       0.47412   0.57732   0.75000 
C          C       0.42268   0.89680   0.75000 
C          C       0.47412   0.89680   0.75000 
C          C       0.42268   0.52588   0.75000 
C          C       0.10320   0.57732   0.75000 
C          C       0.52588   0.10320   0.75000 
C          C       0.57732   0.47412   0.75000 
C          C       0.89680   0.42268   0.75000 
C          C       0.86209   0.45670   0.75000 
C          C       0.54330   0.40540   0.75000 
C          C       0.59460   0.13791   0.75000 
C          C       0.13791   0.54330   0.75000 
C          C       0.45670   0.59460   0.75000 
C          C       0.40540   0.86209   0.75000 
C          C       0.45670   0.86209   0.75000 
C          C       0.40540   0.54330   0.75000 
C          C       0.13791   0.59460   0.75000 
C          C       0.54330   0.13791   0.75000 
C          C       0.59460   0.45670   0.75000 
C          C       0.86209   0.40540   0.75000 
C          C       0.84434   0.42215   0.75000 
C          C       0.57785   0.42219   0.75000 
C          C       0.57781   0.15566   0.75000 
C          C       0.15566   0.57785   0.75000 
C          C       0.42215   0.57781   0.75000 
C          C       0.42219   0.84434   0.75000 
C          C       0.75551   0.39131   0.75000 
C          C       0.60869   0.36420   0.75000 
C          C       0.63580   0.24449   0.75000 
C          C       0.24449   0.60869   0.75000 
C          C       0.39131   0.63580   0.75000 
C          C       0.36420   0.75551   0.75000 
C          C       0.39131   0.75551   0.75000 
C          C       0.36420   0.60869   0.75000 
C          C       0.24449   0.63580   0.75000 
C          C       0.60869   0.24449   0.75000 
C          C       0.63580   0.39131   0.75000 
C          C       0.75551   0.36420   0.75000 
C          C       0.72604   0.39213   0.75000 
C          C       0.60787   0.33391   0.75000 
C          C       0.66609   0.27396   0.75000 
C          C       0.27396   0.60787   0.75000 
C          C       0.39213   0.66609   0.75000 
C          C       0.33391   0.72604   0.75000 
C          C       0.39213   0.72604   0.75000 
C          C       0.33391   0.60787   0.75000 
C          C       0.27396   0.66609   0.75000 
C          C       0.60787   0.27396   0.75000 
C          C       0.66609   0.39213   0.75000 
C          C       0.72604   0.33391   0.75000 
C          C       0.69536   0.36222   0.75000 
C          C       0.63778   0.33314   0.75000 
C          C       0.66686   0.30464   0.75000 
C          C       0.30464   0.63778   0.75000 
C          C       0.36222   0.66686   0.75000 
C          C       0.33314   0.69536   0.75000 
C          C       0.36222   0.69536   0.75000 
C          C       0.33314   0.63778   0.75000 
C          C       0.30464   0.66686   0.75000 
C          C       0.63778   0.30464   0.75000 
C          C       0.66686   0.36222   0.75000 
C          C       0.69536   0.33314   0.75000 
B          B       0.80494   0.40220   0.75000 
B          B       0.59780   0.40273   0.75000 
B          B       0.59726   0.19506   0.75000 
B          B       0.19506   0.59780   0.75000 
B          B       0.40220   0.59726   0.75000 
B          B       0.40274   0.80494   0.75000 
O          O       0.78501   0.36602   0.75000 
O          O       0.63398   0.41899   0.75000 
O          O       0.58101   0.21499   0.75000 
O          O       0.21499   0.63398   0.75000 
O          O       0.36602   0.58101   0.75000 
O          O       0.41899   0.78501   0.75000 
O          O       0.36602   0.78501   0.75000 
O          O       0.41899   0.63398   0.75000 
O          O       0.21499   0.58101   0.75000 
O          O       0.63398   0.21499   0.75000 
O          O       0.58101   0.36602   0.75000 
O          O       0.78501   0.41899   0.75000 
H          H       0.90926   0.49952   0.25000 
H          H       0.84954   0.46955   0.25000 
H          H       0.90930   0.40978   0.25000 
H          H       0.84955   0.38000   0.25000 
H          H       0.72662   0.31221   0.25000 
H          H       0.68779   0.27338   0.25000 
H          H       0.58559   0.27338   0.25000 
H          H       0.58558   0.31221   0.25000 
H          H       0.68779   0.41441   0.25000 
H          H       0.53044   0.15045   0.25000 
H          H       0.50048   0.09069   0.25000 
H          H       0.59026   0.09074   0.25000 
H          H       0.62000   0.15046   0.25000 
H          H       0.50048   0.40974   0.25000 
H          H       0.53045   0.38000   0.25000 
H          H       0.62000   0.46956   0.25000 
H          H       0.59022   0.49952   0.25000 
H          H       0.49952   0.59026   0.25000 
H          H       0.46955   0.62000   0.25000 
H          H       0.38000   0.53044   0.25000 
H          H       0.40978   0.50048   0.25000 
H          H       0.46956   0.84955   0.25000 
H          H       0.49952   0.90931   0.25000 
H          H       0.40974   0.90926   0.25000 
H          H       0.38000   0.84954   0.25000 
H          H       0.31221   0.72662   0.25000 
H          H       0.41441   0.72662   0.25000 
H          H       0.41441   0.68779   0.25000 
H          H       0.31221   0.58558   0.25000 
H          H       0.27338   0.68779   0.25000 
H          H       0.27338   0.58558   0.25000 
H          H       0.15046   0.53045   0.25000 
H          H       0.09074   0.50048   0.25000 
H          H       0.09070   0.59022   0.25000 
H          H       0.15045   0.62000   0.25000 
H          H       0.50048   0.09069   0.75000 
H          H       0.53044   0.15045   0.75000 
H          H       0.59026   0.09074   0.75000 
H          H       0.62000   0.15046   0.75000 
H          H       0.84955   0.38000   0.75000 
H          H       0.90930   0.40978   0.75000 
H          H       0.90926   0.49952   0.75000 
H          H       0.84954   0.46955   0.75000 
H          H       0.72662   0.41441   0.75000 
H          H       0.72662   0.31221   0.75000 
H          H       0.68779   0.27338   0.75000 
H          H       0.58559   0.27338   0.75000 
H          H       0.58558   0.31221   0.75000 
H          H       0.68779   0.41441   0.75000 
H          H       0.62000   0.46956   0.75000 
H          H       0.59022   0.49952   0.75000 
H          H       0.50048   0.40974   0.75000 
H          H       0.53045   0.38000   0.75000 
H          H       0.49952   0.59026   0.75000 
H          H       0.46955   0.62000   0.75000 
H          H       0.38000   0.53044   0.75000 
H          H       0.40978   0.50048   0.75000 
H          H       0.27338   0.58558   0.75000 
H          H       0.27338   0.68779   0.75000 
H          H       0.31221   0.72662   0.75000 
H          H       0.41441   0.72662   0.75000 
H          H       0.41441   0.68779   0.75000 
H          H       0.31221   0.58558   0.75000 
H          H       0.15046   0.53045   0.75000 
H          H       0.09074   0.50048   0.75000 
H          H       0.09070   0.59022   0.75000 
H          H       0.15045   0.62000   0.75000 
H          H       0.38000   0.84954   0.75000 
H          H       0.40974   0.90926   0.75000 
H          H       0.46956   0.84955   0.75000 
H          H       0.49952   0.90931   0.75000 
H          H       0.72662   0.41441   0.25000 
