data_DTP-ANDI-COF
_audit_creation_date              0000-00-00
_audit_creation_method            'LanYouShi'
_symmetry_space_group_name_H-M    'P1'
_cell_length_a                    52.5629997
_cell_length_b                    52.5519981
_cell_length_c                    3.5999999
_cell_angle_alpha                 90.0000000
_cell_angle_beta                  90.0000000
_cell_angle_gamma                 119.9736023
loop_
_atom_site_label
_atom_site_type_symbol
_atom_site_fract_x
_atom_site_fract_y
_atom_site_fract_z
_atom_site_U_iso_or_equiv
_atom_site_adp_type
_atom_site_occupancy
        C1          C  0.5271977  0.4999186  1.3948308    0.00000       Uiso       1.00
        C2          C  0.5271813  0.5272651  1.4008228    0.00000       Uiso       1.00
        C3          C  0.5547315  0.5540134  1.4064415    0.00000       Uiso       1.00
        C4          C  0.5807169  0.5532979  1.4065020    0.00000       Uiso       1.00
        C5          C  0.5807302  0.5274126  1.3980136    0.00000       Uiso       1.00
        C6          C  0.5547580  0.5007270  1.3904470    0.00000       Uiso       1.00
        O1          O  0.6087418  0.5310970  1.3938304    0.00000       Uiso       1.00
        B1          B  0.6263784  0.5631872  1.4014693    0.00000       Uiso       1.00
        O2          O  0.6087187  0.5776265  1.4091090    0.00000       Uiso       1.00
        C7          C  0.5000778  0.4727919  1.3911484    0.00000       Uiso       1.00
        C8          C  0.4727488  0.4728034  1.3769341    0.00000       Uiso       1.00
        C9          C  0.4992572  0.4452316  1.4035723    0.00000       Uiso       1.00
       C10          C  0.4725822  0.4192490  1.3957939    0.00000       Uiso       1.00
       C11          C  0.4467162  0.4192551  1.3795234    0.00000       Uiso       1.00
       C12          C  0.4460090  0.4452444  1.3715582    0.00000       Uiso       1.00
        O3          O  0.4223920  0.3912472  1.3780216    0.00000       Uiso       1.00
        B2          B  0.4368123  0.3735916  1.3953073    0.00000       Uiso       1.00
        O4          O  0.4688868  0.3912372  1.4072882    0.00000       Uiso       1.00
       C13          C  0.5000468  0.5272624  1.3957450    0.00000       Uiso       1.00
       C14          C  0.4727552  0.4999469  1.3738557    0.00000       Uiso       1.00
       C15          C  0.4460709  0.5008071  1.3514093    0.00000       Uiso       1.00
       C16          C  0.4467381  0.5274807  1.3613193    0.00000       Uiso       1.00
       C17          C  0.4725212  0.5532960  1.3921839    0.00000       Uiso       1.00
       C18          C  0.4991741  0.5539719  1.4099065    0.00000       Uiso       1.00
        O5          O  0.4687953  0.5776017  1.4004785    0.00000       Uiso       1.00
        B3          B  0.4367978  0.5632308  1.3698874    0.00000       Uiso       1.00
        O6          O  0.4224519  0.5312001  1.3446031    0.00000       Uiso       1.00
        H1          H  0.5571195  0.5755498  1.4065489    0.00000       Uiso       1.00
        H2          H  0.5571483  0.4815980  1.3766496    0.00000       Uiso       1.00
        H3          H  0.5183641  0.4428533  1.4238340    0.00000       Uiso       1.00
        H4          H  0.4244812  0.4428566  1.3656950    0.00000       Uiso       1.00
        H5          H  0.4246404  0.4817315  1.3245836    0.00000       Uiso       1.00
        H6          H  0.5182228  0.5754304  1.4360166    0.00000       Uiso       1.00
       C19          C  0.1394240  0.8334262  1.4037970    0.00000       Uiso       1.00
       C20          C  0.1394404  0.8060889  1.3918320    0.00000       Uiso       1.00
       C21          C  0.1118901  0.7793365  1.3889341    0.00000       Uiso       1.00
       C22          C  0.0859049  0.7800379  1.3979924    0.00000       Uiso       1.00
       C23          C  0.0858915  0.8059232  1.4065037    0.00000       Uiso       1.00
       C24          C  0.1118638  0.8326182  1.4079325    0.00000       Uiso       1.00
        O7          O  0.0578800  0.8022412  1.4091004    0.00000       Uiso       1.00
        B4          B  0.0402433  0.7701510  1.4014615    0.00000       Uiso       1.00
        O8          O  0.0579031  0.7557117  1.3938220    0.00000       Uiso       1.00
       C25          C  0.1665439  0.8605505  1.4090189    0.00000       Uiso       1.00
       C26          C  0.1938729  0.8605966  1.3858420    0.00000       Uiso       1.00
       C27          C  0.1673646  0.8880452  1.4392467    0.00000       Uiso       1.00
       C28          C  0.1940396  0.9140390  1.4397718    0.00000       Uiso       1.00
       C29          C  0.2199056  0.9140960  1.4150245    0.00000       Uiso       1.00
       C30          C  0.2206127  0.8881578  1.3897804    0.00000       Uiso       1.00
        O9          O  0.2442298  0.9420925  1.4239203    0.00000       Uiso       1.00
        B5          B  0.2298095  0.9596698  1.4575074    0.00000       Uiso       1.00
       O10          O  0.1977350  0.9419889  1.4684236    0.00000       Uiso       1.00
       C31          C  0.1665749  0.8061209  1.3778555    0.00000       Uiso       1.00
       C32          C  0.1938665  0.8334901  1.3649565    0.00000       Uiso       1.00
       C33          C  0.2205507  0.8327133  1.3332103    0.00000       Uiso       1.00
       C34          C  0.2198835  0.8060359  1.3258255    0.00000       Uiso       1.00
       C35          C  0.1941005  0.7801386  1.3481802    0.00000       Uiso       1.00
       C36          C  0.1674476  0.7793953  1.3741888    0.00000       Uiso       1.00
       O11          O  0.1978264  0.7558337  1.3392935    0.00000       Uiso       1.00
        B6          B  0.2298238  0.7703005  1.3076622    0.00000       Uiso       1.00
       O12          O  0.2441696  0.8023839  1.2987146    0.00000       Uiso       1.00
        H7          H  0.1095023  0.7578202  1.3756924    0.00000       Uiso       1.00
        H8          H  0.1094734  0.8517692  1.4074863    0.00000       Uiso       1.00
        H9          H  0.1482576  0.8903490  1.4673194    0.00000       Uiso       1.00
       H10          H  0.2421404  0.8905721  1.3784245    0.00000       Uiso       1.00
       H11          H  0.2419812  0.8518630  1.3118963    0.00000       Uiso       1.00
       H12          H  0.1483990  0.7578685  1.3924427    0.00000       Uiso       1.00
       C37          C  0.8488971  0.6744635  1.4014651    0.00000       Uiso       1.00
       C38          C  0.8488746  0.7198898  1.4163812    0.00000       Uiso       1.00
       C39          C  0.8489196  0.6290373  1.3865490    0.00000       Uiso       1.00
       C40          C  0.8644261  0.7049463  1.4089223    0.00000       Uiso       1.00
       C41          C  0.8953874  0.7204293  1.4089218    0.00000       Uiso       1.00
       C42          C  0.8644485  0.6595234  1.3940073    0.00000       Uiso       1.00
       C43          C  0.8954099  0.6750064  1.3940067    0.00000       Uiso       1.00
       C44          C  0.9437749  0.7219096  1.4014634    0.00000       Uiso       1.00
       C45          C  0.9603648  0.7529229  1.4089206    0.00000       Uiso       1.00
       C46          C  0.9911599  0.7683228  1.4089199    0.00000       Uiso       1.00
       C47          C  0.9603872  0.7075000  1.3940055    0.00000       Uiso       1.00
       C48          C  0.9911823  0.7229000  1.3940048    0.00000       Uiso       1.00
       C49          C  0.0071094  0.7535816  1.4014622    0.00000       Uiso       1.00
       O13          O  0.9084240  0.7478930  1.4157971    0.00000       Uiso       1.00
       O14          O  0.9084671  0.6605917  1.3871309    0.00000       Uiso       1.00
        N1          N  0.9111537  0.7055966  1.4014639    0.00000       Uiso       1.00
       H13          H  0.8608022  0.7437631  1.4222602    0.00000       Uiso       1.00
       H14          H  0.9492713  0.7656902  1.4149331    0.00000       Uiso       1.00
       H15          H  0.0030880  0.7921962  1.4147989    0.00000       Uiso       1.00
       H16          H  0.8608648  0.6171023  1.3806697    0.00000       Uiso       1.00
       H17          H  0.9493119  0.6836467  1.3879935    0.00000       Uiso       1.00
       H18          H  0.0031281  0.7109650  1.3881258    0.00000       Uiso       1.00
       C50          C  0.8177241  0.6588747  1.4014658    0.00000       Uiso       1.00
       C51          C  0.8177466  0.6134484  1.3865495    0.00000       Uiso       1.00
       C52          C  0.8177016  0.7043009  1.4163820    0.00000       Uiso       1.00
       C53          C  0.8021951  0.6283919  1.3940084    0.00000       Uiso       1.00
       C54          C  0.7712338  0.6129089  1.3940091    0.00000       Uiso       1.00
       C55          C  0.8021727  0.6738148  1.4089235    0.00000       Uiso       1.00
       C56          C  0.7712113  0.6583318  1.4089242    0.00000       Uiso       1.00
       C57          C  0.7228463  0.6114285  1.4014674    0.00000       Uiso       1.00
       C58          C  0.7062564  0.5804152  1.3940103    0.00000       Uiso       1.00
       C59          C  0.6754614  0.5650154  1.3940108    0.00000       Uiso       1.00
       C60          C  0.7062340  0.6258381  1.4089254    0.00000       Uiso       1.00
       C61          C  0.6754389  0.6104382  1.4089259    0.00000       Uiso       1.00
       C62          C  0.6595123  0.5797567  1.4014686    0.00000       Uiso       1.00
       O15          O  0.7581972  0.5854452  1.3871337    0.00000       Uiso       1.00
       O16          O  0.7581541  0.6727465  1.4158000    0.00000       Uiso       1.00
        N2          N  0.7554675  0.6277416  1.4014668    0.00000       Uiso       1.00
       H19          H  0.8058190  0.5895752  1.3806708    0.00000       Uiso       1.00
       H20          H  0.7173499  0.5676480  1.3879977    0.00000       Uiso       1.00
       H21          H  0.6635338  0.5411421  1.3881321    0.00000       Uiso       1.00
       H22          H  0.8057564  0.7162359  1.4222611    0.00000       Uiso       1.00
       H23          H  0.7173094  0.6496915  1.4149375    0.00000       Uiso       1.00
       H24          H  0.6634937  0.6223733  1.4148052    0.00000       Uiso       1.00
       C63          C  0.3255160  0.6745641  1.3364314    0.00000       Uiso       1.00
       C64          C  0.2802722  0.6292633  1.2818817    0.00000       Uiso       1.00
       C65          C  0.3707598  0.7198648  1.3909811    0.00000       Uiso       1.00
       C66          C  0.2951241  0.6596907  1.3068221    0.00000       Uiso       1.00
       C67          C  0.2796403  0.6751816  1.3021669    0.00000       Uiso       1.00
       C68          C  0.3403645  0.7049880  1.3613677    0.00000       Uiso       1.00
       C69          C  0.3248807  0.7204790  1.3567126    0.00000       Uiso       1.00
       C70          C  0.2780675  0.7220345  1.3221663    0.00000       Uiso       1.00
       C71          C  0.2471451  0.7076918  1.2923975    0.00000       Uiso       1.00
       C72          C  0.2317445  0.7230996  1.2877675    0.00000       Uiso       1.00
       C73          C  0.2923855  0.7529892  1.3469431    0.00000       Uiso       1.00
       C74          C  0.2769848  0.7683970  1.3423131    0.00000       Uiso       1.00
       C75          C  0.2463942  0.7537225  1.3126440    0.00000       Uiso       1.00
       O17          O  0.2522605  0.6608281  1.2750608    0.00000       Uiso       1.00
       O18          O  0.3392110  0.7478881  1.3798957    0.00000       Uiso       1.00
        N3          N  0.2943814  0.7057131  1.3270710    0.00000       Uiso       1.00
       H25          H  0.2564706  0.6173809  1.2585870    0.00000       Uiso       1.00
       H26          H  0.2344517  0.6838863  1.2720762    0.00000       Uiso       1.00
       H27          H  0.2079428  0.7112172  1.2644727    0.00000       Uiso       1.00
       H28          H  0.3826226  0.7436917  1.4106865    0.00000       Uiso       1.00
       H29          H  0.3161656  0.7657030  1.3705976    0.00000       Uiso       1.00
       H30          H  0.2888477  0.7922239  1.3620185    0.00000       Uiso       1.00
       C76          C  0.3411056  0.6589672  1.3411183    0.00000       Uiso       1.00
       C77          C  0.3863494  0.7042680  1.3956679    0.00000       Uiso       1.00
       C78          C  0.2958619  0.6136665  1.2865685    0.00000       Uiso       1.00
       C79          C  0.3714975  0.6738406  1.3707275    0.00000       Uiso       1.00
       C80          C  0.3869813  0.6583497  1.3753827    0.00000       Uiso       1.00
       C81          C  0.3262571  0.6285433  1.3161820    0.00000       Uiso       1.00
       C82          C  0.3417409  0.6130524  1.3208370    0.00000       Uiso       1.00
       C83          C  0.3885541  0.6114968  1.3553833    0.00000       Uiso       1.00
       C84          C  0.4194765  0.6258394  1.3851521    0.00000       Uiso       1.00
       C85          C  0.4348772  0.6104317  1.3897822    0.00000       Uiso       1.00
       C86          C  0.3742361  0.5805421  1.3306065    0.00000       Uiso       1.00
       C87          C  0.3896368  0.5651343  1.3352365    0.00000       Uiso       1.00
       C88          C  0.4202275  0.5798088  1.3649056    0.00000       Uiso       1.00
       O19          O  0.4143611  0.6727032  1.4024889    0.00000       Uiso       1.00
       O20          O  0.3274106  0.5856432  1.2976539    0.00000       Uiso       1.00
        N4          N  0.3722402  0.6278182  1.3504786    0.00000       Uiso       1.00
       H31          H  0.4101510  0.7161504  1.4189626    0.00000       Uiso       1.00
       H32          H  0.4321700  0.6496450  1.4054734    0.00000       Uiso       1.00
       H33          H  0.4586788  0.6223142  1.4130769    0.00000       Uiso       1.00
       H34          H  0.2839990  0.5898396  1.2668631    0.00000       Uiso       1.00
       H35          H  0.3504560  0.5678282  1.3069521    0.00000       Uiso       1.00
       H36          H  0.3777739  0.5413074  1.3155311    0.00000       Uiso       1.00
       C89          C  0.3255153  0.1510421  1.4287499    0.00000       Uiso       1.00
       C90          C  0.3709078  0.1510324  1.4573225    0.00000       Uiso       1.00
       C91          C  0.2801229  0.1510518  1.4001771    0.00000       Uiso       1.00
       C92          C  0.3404371  0.1354948  1.4453707    0.00000       Uiso       1.00
       C93          C  0.3249512  0.1045293  1.4500238    0.00000       Uiso       1.00
       C94          C  0.2950481  0.1355045  1.4168000    0.00000       Uiso       1.00
       C95          C  0.2795621  0.1045389  1.4214534    0.00000       Uiso       1.00
       C96          C  0.2780604  0.0561511  1.4430091    0.00000       Uiso       1.00
       C97          C  0.2924515  0.0395429  1.4597894    0.00000       Uiso       1.00
       C98          C  0.2770488  0.0087436  1.4644177    0.00000       Uiso       1.00
       C99          C  0.2470625  0.0395526  1.4312189    0.00000       Uiso       1.00
      C100          C  0.2316597  0.0087532  1.4358470    0.00000       Uiso       1.00
      C101          C  0.2463820  0.9928083  1.4525276    0.00000       Uiso       1.00
       O21          O  0.3393492  0.0914761  1.4651554    0.00000       Uiso       1.00
       O22          O  0.2521129  0.0914947  1.4102435    0.00000       Uiso       1.00
        N5          N  0.2943765  0.0887768  1.4381064    0.00000       Uiso       1.00
       H37          H  0.3828284  0.1390905  1.4703780    0.00000       Uiso       1.00
       H38          H  0.3162923  0.0506250  1.4696405    0.00000       Uiso       1.00
       H39          H  0.2889688  0.9968016  1.4774731    0.00000       Uiso       1.00
       H40          H  0.2562618  0.1391175  1.3907095    0.00000       Uiso       1.00
       H41          H  0.2343099  0.0506424  1.4180360    0.00000       Uiso       1.00
       H42          H  0.2077980  0.9968189  1.4263794    0.00000       Uiso       1.00
      C102          C  0.3411071  0.1822194  1.4240648    0.00000       Uiso       1.00
      C103          C  0.2957146  0.1822291  1.3954921    0.00000       Uiso       1.00
      C104          C  0.3864995  0.1822097  1.4526374    0.00000       Uiso       1.00
      C105          C  0.3261853  0.1977666  1.4074440    0.00000       Uiso       1.00
      C106          C  0.3416712  0.2287322  1.4027907    0.00000       Uiso       1.00
      C107          C  0.3715744  0.1977570  1.4360145    0.00000       Uiso       1.00
      C108          C  0.3870603  0.2287226  1.4313613    0.00000       Uiso       1.00
      C109          C  0.3885620  0.2771103  1.4098055    0.00000       Uiso       1.00
      C110          C  0.3741709  0.2937185  1.3930253    0.00000       Uiso       1.00
      C111          C  0.3895736  0.3245179  1.3883970    0.00000       Uiso       1.00
      C112          C  0.4195599  0.2937089  1.4215957    0.00000       Uiso       1.00
      C113          C  0.4349627  0.3245082  1.4169676    0.00000       Uiso       1.00
      C114          C  0.4202397  0.3404531  1.4002869    0.00000       Uiso       1.00
       O23          O  0.3272732  0.2417854  1.3876593    0.00000       Uiso       1.00
       O24          O  0.4145095  0.2417668  1.4425710    0.00000       Uiso       1.00
        N6          N  0.3722459  0.2444846  1.4147083    0.00000       Uiso       1.00
       H43          H  0.2837940  0.1941709  1.3824366    0.00000       Uiso       1.00
       H44          H  0.3503301  0.2826365  1.3831741    0.00000       Uiso       1.00
       H45          H  0.3776530  0.3364598  1.3753414    0.00000       Uiso       1.00
       H46          H  0.4103606  0.1941440  1.4621052    0.00000       Uiso       1.00
       H47          H  0.4323125  0.2826190  1.4347787    0.00000       Uiso       1.00
       H48          H  0.4588237  0.3364425  1.4264352    0.00000       Uiso       1.00
