data_crystal
 
_cell_length_a    51.76980
_cell_length_b    51.76980
_cell_length_c    3.53970
_cell_angle_alpha 90.00000
_cell_angle_beta  90.00000
_cell_angle_gamma 120.00000
 
_symmetry_space_group_name_Hall 'P 1'
_symmetry_space_group_name_H-M  'P 1'
 
loop_
_symmetry_equiv_pos_as_xyz
 'x,y,z' 
 
loop_
_atom_site_label
_atom_site_type_symbol
_atom_site_fract_x
_atom_site_fract_y
_atom_site_fract_z
_atom_site_charge
C          C       0.69436   0.33326   0.50000   0.0000000000
C          C       0.69436   0.36109   0.50000   0.0000000000
C          C       0.72247   0.38826   0.50000   0.0000000000
C          C       0.72247   0.33421   0.50000   0.0000000000
C          C       0.74921   0.38796   0.50000   0.0000000000
C          C       0.74921   0.36125   0.50000   0.0000000000
C          C       0.66674   0.36109   0.50000   0.0000000000
C          C       0.63891   0.33326   0.50000   0.0000000000
C          C       0.61174   0.33421   0.50000   0.0000000000
C          C       0.66579   0.38826   0.50000   0.0000000000
C          C       0.61204   0.36125   0.50000   0.0000000000
C          C       0.63875   0.38796   0.50000   0.0000000000
C          C       0.63891   0.30564   0.50000   0.0000000000
C          C       0.66674   0.30564   0.50000   0.0000000000
C          C       0.66579   0.27753   0.50000   0.0000000000
C          C       0.61174   0.27753   0.50000   0.0000000000
C          C       0.63875   0.25079   0.50000   0.0000000000
C          C       0.61204   0.25079   0.50000   0.0000000000
C          C       0.30564   0.66674   0.50000   0.0000000000
C          C       0.30564   0.63891   0.50000   0.0000000000
C          C       0.27753   0.61174   0.50000   0.0000000000
C          C       0.27753   0.66579   0.50000   0.0000000000
C          C       0.25079   0.61204   0.50000   0.0000000000
C          C       0.25079   0.63875   0.50000   0.0000000000
C          C       0.33326   0.63891   0.50000   0.0000000000
C          C       0.36109   0.66674   0.50000   0.0000000000
C          C       0.38826   0.66579   0.50000   0.0000000000
C          C       0.33421   0.61174   0.50000   0.0000000000
C          C       0.38796   0.63875   0.50000   0.0000000000
C          C       0.36125   0.61204   0.50000   0.0000000000
C          C       0.36109   0.69436   0.50000   0.0000000000
C          C       0.33326   0.69436   0.50000   0.0000000000
C          C       0.33421   0.72247   0.50000   0.0000000000
C          C       0.38826   0.72247   0.50000   0.0000000000
C          C       0.36125   0.74921   0.50000   0.0000000000
C          C       0.38796   0.74921   0.50000   0.0000000000
O          O       0.77722   0.36583   0.50000   0.0000000000
O          O       0.63417   0.41139   0.50000   0.0000000000
O          O       0.58861   0.22278   0.50000   0.0000000000
O          O       0.22278   0.63417   0.50000   0.0000000000
O          O       0.36583   0.58861   0.50000   0.0000000000
O          O       0.41139   0.77722   0.50000   0.0000000000
O          O       0.36583   0.77722   0.50000   0.0000000000
O          O       0.41139   0.63417   0.50000   0.0000000000
O          O       0.22278   0.58861   0.50000   0.0000000000
O          O       0.63417   0.22278   0.50000   0.0000000000
O          O       0.58861   0.36583   0.50000   0.0000000000
O          O       0.77722   0.41139   0.50000   0.0000000000
B          B       0.79573   0.39786   0.50000   0.0000000000
B          B       0.60214   0.39786   0.50000   0.0000000000
B          B       0.60214   0.20427   0.50000   0.0000000000
B          B       0.20427   0.60214   0.50000   0.0000000000
B          B       0.39786   0.60214   0.50000   0.0000000000
B          B       0.39786   0.79573   0.50000   0.0000000000
H          H       0.72487   0.40894   0.50000   0.0000000000
H          H       0.59106   0.31593   0.50000   0.0000000000
H          H       0.68407   0.27513   0.50000   0.0000000000
H          H       0.59106   0.27513   0.50000   0.0000000000
H          H       0.68407   0.40894   0.50000   0.0000000000
H          H       0.72487   0.31593   0.50000   0.0000000000
H          H       0.27513   0.59106   0.50000   0.0000000000
H          H       0.40894   0.68407   0.50000   0.0000000000
H          H       0.31593   0.72487   0.50000   0.0000000000
H          H       0.40894   0.72487   0.50000   0.0000000000
H          H       0.31593   0.59106   0.50000   0.0000000000
H          H       0.27513   0.68407   0.50000   0.0000000000
C          C       0.02678   0.52677   0.50000   0.0000000000
C          C       0.47323   0.50002   0.50000   0.0000000000
C          C       0.49998   0.97322   0.50000   0.0000000000
C          C       0.97322   0.47323   0.50000   0.0000000000
C          C       0.52677   0.49998   0.50000   0.0000000000
C          C       0.50002   0.02678   0.50000   0.0000000000
C          C       0.52677   0.02678   0.50000   0.0000000000
C          C       0.50002   0.47323   0.50000   0.0000000000
C          C       0.97322   0.49998   0.50000   0.0000000000
C          C       0.47323   0.97322   0.50000   0.0000000000
C          C       0.49998   0.52677   0.50000   0.0000000000
C          C       0.02678   0.50002   0.50000   0.0000000000
C          C       0.05656   0.54903   0.50000   0.0000000000
C          C       0.45097   0.50753   0.50000   0.0000000000
C          C       0.49247   0.94344   0.50000   0.0000000000
C          C       0.94344   0.45097   0.50000   0.0000000000
C          C       0.54903   0.49247   0.50000   0.0000000000
C          C       0.50753   0.05656   0.50000   0.0000000000
C          C       0.54903   0.05656   0.50000   0.0000000000
C          C       0.50753   0.45097   0.50000   0.0000000000
C          C       0.94344   0.49247   0.50000   0.0000000000
C          C       0.45097   0.94344   0.50000   0.0000000000
C          C       0.49247   0.54903   0.50000   0.0000000000
C          C       0.05656   0.50753   0.50000   0.0000000000
C          C       0.10625   0.55313   0.50000   0.0000000000
C          C       0.44687   0.55313   0.50000   0.0000000000
C          C       0.44687   0.89375   0.50000   0.0000000000
C          C       0.89375   0.44687   0.50000   0.0000000000
C          C       0.55313   0.44687   0.50000   0.0000000000
C          C       0.55313   0.10625   0.50000   0.0000000000
C          C       0.12348   0.58487   0.50000   0.0000000000
C          C       0.41513   0.53861   0.50000   0.0000000000
C          C       0.46139   0.87652   0.50000   0.0000000000
C          C       0.87652   0.41513   0.50000   0.0000000000
C          C       0.58487   0.46139   0.50000   0.0000000000
C          C       0.53861   0.12348   0.50000   0.0000000000
C          C       0.58487   0.12348   0.50000   0.0000000000
C          C       0.53861   0.41513   0.50000   0.0000000000
C          C       0.87652   0.46139   0.50000   0.0000000000
C          C       0.41513   0.87652   0.50000   0.0000000000
C          C       0.46139   0.58487   0.50000   0.0000000000
C          C       0.12348   0.53861   0.50000   0.0000000000
C          C       0.15490   0.60078   0.50000   0.0000000000
C          C       0.39922   0.55413   0.50000   0.0000000000
C          C       0.44587   0.84510   0.50000   0.0000000000
C          C       0.84510   0.39922   0.50000   0.0000000000
C          C       0.60078   0.44587   0.50000   0.0000000000
C          C       0.55413   0.15490   0.50000   0.0000000000
C          C       0.60078   0.15490   0.50000   0.0000000000
C          C       0.55413   0.39922   0.50000   0.0000000000
C          C       0.84510   0.44587   0.50000   0.0000000000
C          C       0.39922   0.84510   0.50000   0.0000000000
C          C       0.44587   0.60078   0.50000   0.0000000000
C          C       0.15490   0.55413   0.50000   0.0000000000
H          H       0.11356   0.59755   0.50000   0.0000000000
H          H       0.40245   0.51602   0.50000   0.0000000000
H          H       0.48398   0.88644   0.50000   0.0000000000
H          H       0.88644   0.40245   0.50000   0.0000000000
H          H       0.59755   0.48398   0.50000   0.0000000000
H          H       0.51602   0.11356   0.50000   0.0000000000
H          H       0.59755   0.11356   0.50000   0.0000000000
H          H       0.51602   0.40245   0.50000   0.0000000000
H          H       0.88644   0.48398   0.50000   0.0000000000
H          H       0.40245   0.88644   0.50000   0.0000000000
H          H       0.48398   0.59755   0.50000   0.0000000000
H          H       0.11356   0.51602   0.50000   0.0000000000
H          H       0.16601   0.62368   0.50000   0.0000000000
H          H       0.37632   0.54233   0.50000   0.0000000000
H          H       0.45767   0.83399   0.50000   0.0000000000
H          H       0.83399   0.37632   0.50000   0.0000000000
H          H       0.62368   0.45767   0.50000   0.0000000000
H          H       0.54233   0.16601   0.50000   0.0000000000
H          H       0.62368   0.16601   0.50000   0.0000000000
H          H       0.54233   0.37632   0.50000   0.0000000000
H          H       0.83399   0.45767   0.50000   0.0000000000
H          H       0.37632   0.83399   0.50000   0.0000000000
H          H       0.45767   0.62368   0.50000   0.0000000000
H          H       0.16601   0.54233   0.50000   0.0000000000
C          C       0.82897   0.41449   0.50000   0.0000000000
C          C       0.58551   0.41449   0.50000   0.0000000000
C          C       0.58551   0.17103   0.50000   0.0000000000
C          C       0.17103   0.58551   0.50000   0.0000000000
C          C       0.41449   0.58551   0.50000   0.0000000000
C          C       0.41449   0.82897   0.50000   0.0000000000
C          C       0.52774   0.52774   0.50000   0.0000000000
H          H       0.54756   0.54756   0.50000   0.0000000000
C          C       0.47226   0.00000   0.50000   0.0000000000
H          H       0.45244   0.00000   0.50000   0.0000000000
C          C      -0.00000   0.47226   0.50000   0.0000000000
H          H       0.00000   0.45244   0.50000   0.0000000000
C          C       0.47226   0.47226   0.50000   0.0000000000
H          H       0.45244   0.45244   0.50000   0.0000000000
C          C       0.52774   0.00000   0.50000   0.0000000000
H          H       0.54756   0.00000   0.50000   0.0000000000
C          C       0.00000   0.52774   0.50000   0.0000000000
H          H      -0.00000   0.54756   0.50000   0.0000000000
O          O       0.06311   0.57572   0.50000   0.0000000000
O          O       0.06311   0.48739   0.50000   0.0000000000
O          O       0.42428   0.48739   0.50000   0.0000000000
O          O       0.51261   0.57572   0.50000   0.0000000000
O          O       0.51261   0.93689   0.50000   0.0000000000
O          O       0.42428   0.93689   0.50000   0.0000000000
O          O       0.93689   0.42428   0.50000   0.0000000000
O          O       0.93689   0.51261   0.50000   0.0000000000
O          O       0.57572   0.51261   0.50000   0.0000000000
O          O       0.48739   0.42428   0.50000   0.0000000000
O          O       0.48739   0.06311   0.50000   0.0000000000
O          O       0.57572   0.06311   0.50000   0.0000000000
N          N       0.07535   0.53767   0.50000   0.0000000000
N          N       0.46233   0.53767   0.50000   0.0000000000
N          N       0.46233   0.92465   0.50000   0.0000000000
N          N       0.92465   0.46233   0.50000   0.0000000000
N          N       0.53767   0.46233   0.50000   0.0000000000
N          N       0.53767   0.07535   0.50000   0.0000000000
