data_crystal
 
_cell_length_a    3.60000
_cell_length_b    29.21400
_cell_length_c    29.21400
_cell_angle_alpha 120.00000
_cell_angle_beta  90.00000
_cell_angle_gamma 90.00000
 
_symmetry_space_group_name_Hall 'P 1'
_symmetry_space_group_name_H-M  'P 1'
 
loop_
_symmetry_equiv_pos_as_xyz
 'x,y,z' 
 
loop_
_atom_site_label
_atom_site_type_symbol
_atom_site_fract_x
_atom_site_fract_y
_atom_site_fract_z
_atom_site_charge
N          N      -0.38889   0.43726  -0.18983   0.0000000000
N          N      -0.38889   0.61097   0.18867   0.0000000000
N          N      -0.38889   0.37291  -0.43726   0.0000000000
N          N      -0.38889   0.57769   0.38903   0.0000000000
N          N      -0.38889   0.18983  -0.37290   0.0000000000
N          N      -0.38889   0.81133   0.42231   0.0000000000
C          C      -0.38889   0.38445  -0.22214   0.0000000000
C          C      -0.38889   0.46402  -0.13679   0.0000000000
C          C      -0.38889   0.43819  -0.10822   0.0000000000
C          C      -0.38889   0.46831  -0.05468   0.0000000000
C          C      -0.38889   0.52496  -0.02685   0.0000000000
C          C      -0.38889   0.55547  -0.05357   0.0000000000
C          C      -0.38889   0.51948  -0.10958   0.0000000000
C          C      -0.38889   0.65818   0.23203   0.0000000000
C          C      -0.38889   0.59537   0.13772   0.0000000000
C          C      -0.38889   0.62614   0.11343   0.0000000000
C          C      -0.38889   0.60577   0.05757   0.0000000000
C          C      -0.38889   0.54954   0.02835   0.0000000000
C          C      -0.38889   0.51905   0.05469   0.0000000000
C          C      -0.38889   0.54118   0.10838   0.0000000000
C          C      -0.38889   0.39341  -0.38445   0.0000000000
C          C      -0.38889   0.39919  -0.46402   0.0000000000
C          C      -0.38889   0.45359  -0.43819   0.0000000000
C          C      -0.38889   0.47701  -0.46831   0.0000000000
C          C      -0.38889   0.44819  -0.52495   0.0000000000
C          C      -0.38889   0.39096  -0.55547   0.0000000000
C          C      -0.38889   0.37094  -0.51948   0.0000000000
C          C      -0.38889   0.57385   0.34183   0.0000000000
C          C      -0.38889   0.54235   0.40463   0.0000000000
C          C      -0.38889   0.48729   0.37386   0.0000000000
C          C      -0.38889   0.45180   0.39424   0.0000000000
C          C      -0.38889   0.47881   0.45046   0.0000000000
C          C      -0.38889   0.53564   0.48095   0.0000000000
C          C      -0.38889   0.56721   0.45883   0.0000000000
C          C      -0.38889   0.22214  -0.39341   0.0000000000
C          C      -0.38889   0.13679  -0.39919   0.0000000000
C          C      -0.38889   0.10822  -0.45359   0.0000000000
C          C      -0.38889   0.05468  -0.47701   0.0000000000
C          C      -0.38889   0.02685  -0.44819   0.0000000000
C          C      -0.38889   0.05357  -0.39096   0.0000000000
C          C      -0.38889   0.10958  -0.37094   0.0000000000
C          C      -0.38889   0.76797   0.42615   0.0000000000
C          C      -0.38889   0.86228   0.45765   0.0000000000
C          C      -0.38889   0.88657   0.51271   0.0000000000
C          C      -0.38889   0.94243   0.54820   0.0000000000
C          C      -0.38889   0.97165   0.52119   0.0000000000
C          C      -0.38889   0.94532   0.46436   0.0000000000
C          C      -0.38889   0.89162   0.43279   0.0000000000
H          H      -0.38889   0.36013  -0.20652   0.0000000000
H          H      -0.38889   0.43334  -0.36013   0.0000000000
H          H      -0.38889   0.20653  -0.43334   0.0000000000
H          H      -0.38889   0.39817  -0.12453   0.0000000000
H          H      -0.38889   0.47730  -0.39817   0.0000000000
H          H      -0.38889   0.12453  -0.47730   0.0000000000
H          H      -0.38889   0.45791  -0.20751   0.0000000000
H          H      -0.38889   0.33458  -0.45790   0.0000000000
H          H      -0.38889   0.20751  -0.33458   0.0000000000
H          H      -0.38889   0.52965  -0.13603   0.0000000000
H          H      -0.38889   0.33432  -0.52965   0.0000000000
H          H      -0.38889   0.13603  -0.33431   0.0000000000
H          H      -0.38889   0.44432  -0.03922   0.0000000000
H          H      -0.38889   0.51646  -0.44432   0.0000000000
H          H      -0.38889   0.03922  -0.51645   0.0000000000
C          C      -0.38889   0.61428  -0.02476   0.0000000000
C          C      -0.38889   0.36095  -0.61428   0.0000000000
C          C      -0.38889   0.02477  -0.36095   0.0000000000
C          C      -0.38889   0.30058  -0.64772   0.0000000000
C          C      -0.38889   0.26621  -0.70534   0.0000000000
C          C      -0.38889   0.21038  -0.73644   0.0000000000
C          C      -0.38889   0.17987  -0.71237   0.0000000000
C          C      -0.38889   0.20696  -0.65764   0.0000000000
C          C      -0.38889   0.26279  -0.62923   0.0000000000
H          H      -0.38889   0.13948  -0.73385   0.0000000000
H          H      -0.38889   0.18595  -0.63814   0.0000000000
H          H      -0.38889   0.27080  -0.59285   0.0000000000
H          H      -0.38889   0.27734   0.26773   0.0000000000
H          H      -0.38889   0.19155  -0.77700   0.0000000000
C          C      -0.38889   0.05170  -0.30058   0.0000000000
C          C      -0.38889   0.02845  -0.26621   0.0000000000
C          C      -0.38889   0.05318  -0.21038   0.0000000000
C          C      -0.38889   0.10775  -0.17987   0.0000000000
C          C      -0.38889   0.13540  -0.20696   0.0000000000
C          C      -0.38889   0.10798  -0.26279   0.0000000000
H          H      -0.38889   0.12667  -0.13948   0.0000000000
H          H      -0.38889   0.17590  -0.18595   0.0000000000
H          H      -0.38889   0.13635  -0.27080   0.0000000000
H          H      -0.38889   0.99040   0.72267   0.0000000000
H          H      -0.38889   0.03145  -0.19155   0.0000000000
C          C      -0.38889   0.64772  -0.05170   0.0000000000
C          C      -0.38889   0.70534  -0.02845   0.0000000000
C          C      -0.38889   0.73645  -0.05317   0.0000000000
C          C      -0.38889   0.71237  -0.10775   0.0000000000
C          C      -0.38889   0.65764  -0.13540   0.0000000000
C          C      -0.38889   0.62923  -0.10798   0.0000000000
H          H      -0.38889   0.73385  -0.12667   0.0000000000
H          H      -0.38889   0.63815  -0.17590   0.0000000000
H          H      -0.38889   0.59285  -0.13635   0.0000000000
H          H      -0.38889   0.73227   0.00960   0.0000000000
H          H      -0.38889   0.77700  -0.03145   0.0000000000
H          H      -0.38889   0.69151   0.22868   0.0000000000
H          H      -0.38889   0.66376   0.13983   0.0000000000
H          H      -0.38889   0.58227   0.19563   0.0000000000
H          H      -0.38889   0.51754   0.12526   0.0000000000
N          N      -0.38889   0.63591   0.03217   0.0000000000
H          H      -0.38889   0.47941   0.03802   0.0000000000
H          H      -0.16121   0.73502   0.14786   0.0000000000
H          H      -0.15569   0.70582   0.05449   0.0000000000
H          H      -0.61657   0.73502   0.14786   0.0000000000
H          H      -0.62209   0.70582   0.05449   0.0000000000
C          C      -0.38889   0.73715   0.12618   0.0000000000
C          C      -0.38889   0.69374   0.06654   0.0000000000
H          H      -0.38889   0.77663   0.13060   0.0000000000
F          F      -0.49890   0.85306   0.23498   0.0000000000
H          H      -0.38889   0.53718   0.30849   0.0000000000
H          H      -0.38889   0.47607   0.33624   0.0000000000
H          H      -0.38889   0.61337   0.41774   0.0000000000
H          H      -0.38889   0.60772   0.48246   0.0000000000
N          N      -0.38889   0.39626   0.36410   0.0000000000
H          H      -0.38889   0.55861   0.52059   0.0000000000
H          H      -0.16121   0.41284   0.26498   0.0000000000
H          H      -0.15569   0.34866   0.29418   0.0000000000
H          H      -0.61657   0.41284   0.26498   0.0000000000
H          H      -0.62209   0.34866   0.29418   0.0000000000
C          C      -0.38889   0.38904   0.26285   0.0000000000
C          C      -0.38889   0.37280   0.30626   0.0000000000
H          H      -0.38889   0.35398   0.22338   0.0000000000
F          F      -0.53584   0.36304   0.13382   0.0000000000
H          H      -0.38889   0.77132   0.46283   0.0000000000
H          H      -0.38889   0.86017   0.52393   0.0000000000
H          H      -0.38889   0.80437   0.38663   0.0000000000
H          H      -0.38889   0.87475   0.39228   0.0000000000
N          N      -0.38889   0.96784   0.60374   0.0000000000
H          H      -0.38889   0.96198   0.44139   0.0000000000
H          H      -0.16121   0.85214   0.58717   0.0000000000
H          H      -0.15569   0.94552   0.65134   0.0000000000
H          H      -0.61657   0.85214   0.58717   0.0000000000
H          H      -0.62209   0.94552   0.65134   0.0000000000
C          C      -0.38889   0.87382   0.61097   0.0000000000
C          C      -0.38889   0.93346   0.62720   0.0000000000
H          H      -0.38889   0.86940   0.64602   0.0000000000
F          F      -0.59390   0.80221   0.68924   0.0000000000
C          C      -0.38889   0.61595   0.28863   0.0000000000
C          C      -0.38889   0.66091   0.28178   0.0000000000
C          C      -0.38889   0.38880  -0.30438   0.0000000000
C          C      -0.38889   0.36008  -0.27737   0.0000000000
C          C      -0.38889   0.67268   0.38405   0.0000000000
C          C      -0.38889   0.62087   0.33910   0.0000000000
C          C      -0.38889   0.30681  -0.38880   0.0000000000
C          C      -0.38889   0.36255  -0.36008   0.0000000000
C          C      -0.38889   0.71137   0.32732   0.0000000000
C          C      -0.38889   0.71822   0.37913   0.0000000000
C          C      -0.38889   0.30439  -0.30681   0.0000000000
C          C      -0.38889   0.27737  -0.36255   0.0000000000
O          O      -0.38889   0.56933   0.25034   0.0000000000
O          O      -0.38889   0.43850  -0.27944   0.0000000000
O          O      -0.38889   0.68101   0.43067   0.0000000000
O          O      -0.38889   0.28205  -0.43850   0.0000000000
O          O      -0.38889   0.74966   0.31899   0.0000000000
O          O      -0.38889   0.27945  -0.28205   0.0000000000
