data_EB-COF-I
_audit_creation_date              0000-00-00
_audit_creation_method            'LanYouShi'
_symmetry_space_group_name_H-M    'P1'
_cell_length_a                    3.5999999
_cell_length_b                    29.2140007
_cell_length_c                    29.2140007
_cell_angle_alpha                 120.0000000
_cell_angle_beta                  90.0000000
_cell_angle_gamma                 90.0000000
loop_
_atom_site_label
_atom_site_type_symbol
_atom_site_fract_x
_atom_site_fract_y
_atom_site_fract_z
_atom_site_U_iso_or_equiv
_atom_site_adp_type
_atom_site_occupancy
        N1          N -0.3888887  0.4372644 -0.1898302    0.00000       Uiso       1.00
        N2          N -0.3888887  0.6109736  0.1886684    0.00000       Uiso       1.00
        N3          N -0.3888887  0.3729054 -0.4372627    0.00000       Uiso       1.00
        N4          N -0.3888887  0.5776948  0.3890280    0.00000       Uiso       1.00
        N5          N -0.3888887  0.1898318 -0.3729039    0.00000       Uiso       1.00
        N6          N -0.3888887  0.8113332  0.4223067    0.00000       Uiso       1.00
        C1          C -0.3888887  0.3844475 -0.2221376    0.00000       Uiso       1.00
        C2          C -0.3888887  0.4640211 -0.1367880    0.00000       Uiso       1.00
        C3          C -0.3888887  0.4381926 -0.1082191    0.00000       Uiso       1.00
        C4          C -0.3888887  0.4683103 -0.0546753    0.00000       Uiso       1.00
        C5          C -0.3888887  0.5249561 -0.0268514    0.00000       Uiso       1.00
        C6          C -0.3888887  0.5554678 -0.0535695    0.00000       Uiso       1.00
        C7          C -0.3888887  0.5194840 -0.1095792    0.00000       Uiso       1.00
        C8          C -0.3888887  0.6581751  0.2320279    0.00000       Uiso       1.00
        C9          C -0.3888887  0.5953704  0.1377180    0.00000       Uiso       1.00
       C10          C -0.3888887  0.6261420  0.1134309    0.00000       Uiso       1.00
       C11          C -0.3888887  0.6057651  0.0575694    0.00000       Uiso       1.00
       C12          C -0.3888887  0.5495427  0.0283530    0.00000       Uiso       1.00
       C13          C -0.3888887  0.5190470  0.0546865    0.00000       Uiso       1.00
       C14          C -0.3888887  0.5411761  0.1083840    0.00000       Uiso       1.00
       C15          C -0.3888887  0.3934149 -0.3844459    0.00000       Uiso       1.00
       C16          C -0.3888887  0.3991909 -0.4640194    0.00000       Uiso       1.00
       C17          C -0.3888887  0.4535883 -0.4381910    0.00000       Uiso       1.00
       C18          C -0.3888887  0.4770144 -0.4683087    0.00000       Uiso       1.00
       C19          C -0.3888887  0.4481924 -0.5249545    0.00000       Uiso       1.00
       C20          C -0.3888887  0.3909627 -0.5554662    0.00000       Uiso       1.00
       C21          C -0.3888887  0.3709367 -0.5194824    0.00000       Uiso       1.00
       C22          C -0.3888887  0.5738528  0.3418265    0.00000       Uiso       1.00
       C23          C -0.3888887  0.5423476  0.4046312    0.00000       Uiso       1.00
       C24          C -0.3888887  0.4872888  0.3738596    0.00000       Uiso       1.00
       C25          C -0.3888887  0.4518043  0.3942365    0.00000       Uiso       1.00
       C26          C -0.3888887  0.4788103  0.4504589    0.00000       Uiso       1.00
       C27          C -0.3888887  0.5356395  0.4809546    0.00000       Uiso       1.00
       C28          C -0.3888887  0.5672078  0.4588254    0.00000       Uiso       1.00
       C29          C -0.3888887  0.2221393 -0.3934132    0.00000       Uiso       1.00
       C30          C -0.3888887  0.1367896 -0.3991893    0.00000       Uiso       1.00
       C31          C -0.3888887  0.1082207 -0.4535867    0.00000       Uiso       1.00
       C32          C -0.3888887  0.0546769 -0.4770128    0.00000       Uiso       1.00
       C33          C -0.3888887  0.0268530 -0.4481908    0.00000       Uiso       1.00
       C34          C -0.3888887  0.0535711 -0.3909610    0.00000       Uiso       1.00
       C35          C -0.3888887  0.1095808 -0.3709351    0.00000       Uiso       1.00
       C36          C -0.3888887  0.7679737  0.4261488    0.00000       Uiso       1.00
       C37          C -0.3888887  0.8622836  0.4576540    0.00000       Uiso       1.00
       C38          C -0.3888887  0.8865707  0.5127127    0.00000       Uiso       1.00
       C39          C -0.3888887  0.9424322  0.5481973    0.00000       Uiso       1.00
       C40          C -0.3888887  0.9716486  0.5211913    0.00000       Uiso       1.00
       C41          C -0.3888887  0.9453151  0.4643621    0.00000       Uiso       1.00
       C42          C -0.3888887  0.8916176  0.4327938    0.00000       Uiso       1.00
        H1          H -0.3888887  0.3601350 -0.2065236    0.00000       Uiso       1.00
        H2          H -0.3888887  0.4333413 -0.3601335    0.00000       Uiso       1.00
        H3          H -0.3888887  0.2065252 -0.4333397    0.00000       Uiso       1.00
        H4          H -0.3888887  0.3981698 -0.1245325    0.00000       Uiso       1.00
        H5          H -0.3888887  0.4772976 -0.3981682    0.00000       Uiso       1.00
        H6          H -0.3888887  0.1245341 -0.4772960    0.00000       Uiso       1.00
        H7          H -0.3888887  0.4579064 -0.2075093    0.00000       Uiso       1.00
        H8          H -0.3888887  0.3345842 -0.4579048    0.00000       Uiso       1.00
        H9          H -0.3888887  0.2075109 -0.3345826    0.00000       Uiso       1.00
       H10          H -0.3888887  0.5296544 -0.1360293    0.00000       Uiso       1.00
       H11          H -0.3888887  0.3343162 -0.5296529    0.00000       Uiso       1.00
       H12          H -0.3888887  0.1360309 -0.3343146    0.00000       Uiso       1.00
       H13          H -0.3888887  0.4443246 -0.0392201    0.00000       Uiso       1.00
       H14          H -0.3888887  0.5164553 -0.4443230    0.00000       Uiso       1.00
       H15          H -0.3888887  0.0392217 -0.5164537    0.00000       Uiso       1.00
        C1          C -0.3888887  0.6142823 -0.0247646    0.00000       Uiso       1.00
        C2          C -0.3888887  0.3609531 -0.6142806    0.00000       Uiso       1.00
        C3          C -0.3888887  0.0247662 -0.3609515    0.00000       Uiso       1.00
        C4          C -0.3888887  0.3005822 -0.6477188    0.00000       Uiso       1.00
        C5          C -0.3888887  0.2662090 -0.7053388    0.00000       Uiso       1.00
        C6          C -0.3888887  0.2103792 -0.7364446    0.00000       Uiso       1.00
        C7          C -0.3888887  0.1798743 -0.7123720    0.00000       Uiso       1.00
        C8          C -0.3888887  0.2069636 -0.6576368    0.00000       Uiso       1.00
        C9          C -0.3888887  0.2627938 -0.6292257    0.00000       Uiso       1.00
       H16          H -0.3888887  0.1394788 -0.7338472    0.00000       Uiso       1.00
       H17          H -0.3888887  0.1859538 -0.6381446    0.00000       Uiso       1.00
       H18          H -0.3888887  0.2708047 -0.5928459    0.00000       Uiso       1.00
       H19          H -0.3888887  0.2773351  0.2677344    0.00000       Uiso       1.00
       H20          H -0.3888887  0.1915529 -0.7770004    0.00000       Uiso       1.00
       C10          C -0.3888887  0.0516989 -0.3005806    0.00000       Uiso       1.00
       C11          C -0.3888887  0.0284522 -0.2662074    0.00000       Uiso       1.00
       C12          C -0.3888887  0.0531762 -0.2103776    0.00000       Uiso       1.00
       C13          C -0.3888887  0.1077536 -0.1798727    0.00000       Uiso       1.00
       C14          C -0.3888887  0.1353995 -0.2069620    0.00000       Uiso       1.00
       C15          C -0.3888887  0.1079804 -0.2627922    0.00000       Uiso       1.00
       H21          H -0.3888887  0.1266740 -0.1394771    0.00000       Uiso       1.00
       H22          H -0.3888887  0.1759017 -0.1859521    0.00000       Uiso       1.00
       H23          H -0.3888887  0.1363494 -0.2708031    0.00000       Uiso       1.00
       H24          H -0.3888887  0.9903993  0.7226665    0.00000       Uiso       1.00
       H25          H -0.3888887  0.0314466 -0.1915513    0.00000       Uiso       1.00
       C16          C -0.3888887  0.6477205 -0.0516973    0.00000       Uiso       1.00
       C17          C -0.3888887  0.7053404 -0.0284506    0.00000       Uiso       1.00
       C18          C -0.3888887  0.7364462 -0.0531746    0.00000       Uiso       1.00
       C19          C -0.3888887  0.7123737 -0.1077520    0.00000       Uiso       1.00
       C20          C -0.3888887  0.6576385 -0.1353979    0.00000       Uiso       1.00
       C21          C -0.3888887  0.6292274 -0.1079788    0.00000       Uiso       1.00
       H26          H -0.3888887  0.7338488 -0.1266724    0.00000       Uiso       1.00
       H27          H -0.3888887  0.6381461 -0.1759001    0.00000       Uiso       1.00
       H28          H -0.3888887  0.5928475 -0.1363478    0.00000       Uiso       1.00
       H29          H -0.3888887  0.7322671  0.0096023    0.00000       Uiso       1.00
       H30          H -0.3888887  0.7770021 -0.0314450    0.00000       Uiso       1.00
        H1          H -0.3888887  0.6915071  0.2286826    0.00000       Uiso       1.00
        H2          H -0.3888887  0.6637608  0.1398317    0.00000       Uiso       1.00
        H3          H -0.3888887  0.5822661  0.1956349    0.00000       Uiso       1.00
        H4          H -0.3888887  0.5175385  0.1252552    0.00000       Uiso       1.00
        N1          N -0.3888887  0.6359065  0.0321658    0.00000       Uiso       1.00
        H5          H -0.3888887  0.4794097  0.0380228    0.00000       Uiso       1.00
        H6          H -0.1612097  0.7350221  0.1478575    0.00000       Uiso       1.00
        H7          H -0.1556883  0.7058234  0.0544865    0.00000       Uiso       1.00
        H8          H -0.6165677  0.7350221  0.1478575    0.00000       Uiso       1.00
        H9          H -0.6220891  0.7058234  0.0544865    0.00000       Uiso       1.00
        C1          C -0.3888887  0.7371472  0.1261830    0.00000       Uiso       1.00
        C2          C -0.3888887  0.6937431  0.0665411    0.00000       Uiso       1.00
       H10          H -0.3888887  0.7766250  0.1306048    0.00000       Uiso       1.00
       Br1          I -0.4989035  0.8530583  0.2349814    0.00000       Uiso       1.00
        H1          H -0.3888887  0.5371755  0.3084945    0.00000       Uiso       1.00
        H2          H -0.3888887  0.4760709  0.3362408    0.00000       Uiso       1.00
        H3          H -0.3888887  0.6133687  0.4177355    0.00000       Uiso       1.00
        H4          H -0.3888887  0.6077167  0.4824631    0.00000       Uiso       1.00
        N1          N -0.3888887  0.3962594  0.3640952    0.00000       Uiso       1.00
        H5          H -0.3888887  0.5586131  0.5205919    0.00000       Uiso       1.00
        H6          H -0.1612097  0.4128354  0.2649795    0.00000       Uiso       1.00
        H7          H -0.1556883  0.3486631  0.2941782    0.00000       Uiso       1.00
        H8          H -0.6165677  0.4128354  0.2649795    0.00000       Uiso       1.00
        H9          H -0.6220891  0.3486631  0.2941782    0.00000       Uiso       1.00
        C1          C -0.3888887  0.3890358  0.2628544    0.00000       Uiso       1.00
        C2          C -0.3888887  0.3727980  0.3062585    0.00000       Uiso       1.00
       H10          H -0.3888887  0.3539798  0.2233766    0.00000       Uiso       1.00
       Br1          I -0.5358446  0.3630391  0.1338212    0.00000       Uiso       1.00
        H1          H -0.3888887  0.7713190  0.4628261    0.00000       Uiso       1.00
        H2          H -0.3888887  0.8601698  0.5239307    0.00000       Uiso       1.00
        H3          H -0.3888887  0.8043667  0.3866328    0.00000       Uiso       1.00
        H4          H -0.3888887  0.8747464  0.3922849    0.00000       Uiso       1.00
        N1          N -0.3888887  0.9678358  0.6037422    0.00000       Uiso       1.00
        H5          H -0.3888887  0.9619788  0.4413885    0.00000       Uiso       1.00
        H6          H -0.1612097  0.8521441  0.5871662    0.00000       Uiso       1.00
        H7          H -0.1556883  0.9455151  0.6513385    0.00000       Uiso       1.00
        H8          H -0.6165677  0.8521441  0.5871662    0.00000       Uiso       1.00
        H9          H -0.6220891  0.9455151  0.6513385    0.00000       Uiso       1.00
        C1          C -0.3888887  0.8738186  0.6109658    0.00000       Uiso       1.00
        C2          C -0.3888887  0.9334605  0.6272036    0.00000       Uiso       1.00
       H10          H -0.3888887  0.8693968  0.6460218    0.00000       Uiso       1.00
       Br1          I -0.5939039  0.8022081  0.6892394    0.00000       Uiso       1.00
        C1          C -0.3888887  0.6159503  0.2886347    0.00000       Uiso       1.00
        C2          C -0.3888887  0.6609057  0.2817775    0.00000       Uiso       1.00
        C3          C -0.3888887  0.3888004 -0.3043846    0.00000       Uiso       1.00
        C4          C -0.3888887  0.3600785 -0.2773684    0.00000       Uiso       1.00
        C5          C -0.3888887  0.6726844  0.3840513    0.00000       Uiso       1.00
        C6          C -0.3888887  0.6208718  0.3390959    0.00000       Uiso       1.00
        C7          C -0.3888887  0.3068149 -0.3887988    0.00000       Uiso       1.00
        C8          C -0.3888887  0.3625531 -0.3600769    0.00000       Uiso       1.00
        C9          C -0.3888887  0.7113668  0.3273171    0.00000       Uiso       1.00
       C10          C -0.3888887  0.7182240  0.3791297    0.00000       Uiso       1.00
       C11          C -0.3888887  0.3043863 -0.3068133    0.00000       Uiso       1.00
       C12          C -0.3888887  0.2773700 -0.3625515    0.00000       Uiso       1.00
        O1          O -0.3888887  0.5693273  0.2503387    0.00000       Uiso       1.00
        O2          O -0.3888887  0.4385008 -0.2794445    0.00000       Uiso       1.00
        O3          O -0.3888887  0.6810114  0.4306743    0.00000       Uiso       1.00
        O4          O -0.3888887  0.2820547 -0.4384992    0.00000       Uiso       1.00
        O5          O -0.3888887  0.7496629  0.3189902    0.00000       Uiso       1.00
        O6          O -0.3888887  0.2794461 -0.2820531    0.00000       Uiso       1.00
