data_crystal
 
_cell_length_a    25.58360
_cell_length_b    25.58360
_cell_length_c    4.21640
_cell_angle_alpha 90.00000
_cell_angle_beta  90.00000
_cell_angle_gamma 120.00000
 
_symmetry_space_group_name_Hall 'P 1'
_symmetry_space_group_name_H-M  'P 1'
 
loop_
_symmetry_equiv_pos_as_xyz
 'x,y,z' 
 
loop_
_atom_site_label
_atom_site_type_symbol
_atom_site_fract_x
_atom_site_fract_y
_atom_site_fract_z
_atom_site_charge
C          C       0.38951   0.66875  -0.02676   0.0000000000
C          C       0.33125   0.72076  -0.02676   0.0000000000
C          C       0.27924   0.61049  -0.02676   0.0000000000
C          C       0.38738   0.72286  -0.02476   0.0000000000
C          C       0.27714   0.66452  -0.02476   0.0000000000
C          C       0.33548   0.61262  -0.02476   0.0000000000
N          N       0.33507   0.55944  -0.01494   0.0000000000
N          N       0.44055   0.77563  -0.01494   0.0000000000
N          N       0.22437   0.66493  -0.01494   0.0000000000
N          N       0.22862   0.55541  -0.02691   0.0000000000
N          N       0.44459   0.67321  -0.02691   0.0000000000
N          N       0.32678   0.77138  -0.02691   0.0000000000
C          C       0.77612   0.66474  -0.03175   0.0000000000
C          C       0.33526   0.11139  -0.03175   0.0000000000
C          C       0.88861   0.22388  -0.03175   0.0000000000
C          C       0.85270   0.63430  -0.09858   0.0000000000
C          C       0.36570   0.21840  -0.09858   0.0000000000
C          C       0.78160   0.14730  -0.09858   0.0000000000
C          C       0.81940   0.71579   0.13938   0.0000000000
C          C       0.28421   0.10361   0.13938   0.0000000000
C          C       0.89639   0.18060   0.13938   0.0000000000
C          C       0.79360   0.62371  -0.14623   0.0000000000
C          C       0.37629   0.16989  -0.14623   0.0000000000
C          C       0.83011   0.20640  -0.14623   0.0000000000
H          H       0.86419   0.60417  -0.18785   0.0000000000
H          H       0.39582   0.26001  -0.18785   0.0000000000
H          H       0.73999   0.13581  -0.18785   0.0000000000
H          H       0.80843   0.74607   0.23180   0.0000000000
H          H       0.25393   0.06237   0.23180   0.0000000000
H          H       0.93763   0.19157   0.23180   0.0000000000
H          H       0.76357   0.58596  -0.26877   0.0000000000
H          H       0.41404   0.17761  -0.26877   0.0000000000
H          H       0.82239   0.23643  -0.26877   0.0000000000
C          C       0.31347   0.20972   0.06254   0.0000000000
C          C       0.79028   0.10375   0.06254   0.0000000000
C          C       0.89625   0.68653   0.06254   0.0000000000
C          C       0.27333   0.15175   0.18466   0.0000000000
C          C       0.84825   0.12157   0.18466   0.0000000000
C          C       0.87843   0.72667   0.18466   0.0000000000
H          H       0.90834   0.76447   0.30751   0.0000000000
H          H       0.23553   0.14388   0.30751   0.0000000000
H          H       0.85612   0.09166   0.30751   0.0000000000
C          C       0.28466   0.50355  -0.00772   0.0000000000
C          C       0.49645   0.78112  -0.00772   0.0000000000
C          C       0.21888   0.71534  -0.00772   0.0000000000
C          C       0.22738   0.50145  -0.02040   0.0000000000
C          C       0.49855   0.72593  -0.02040   0.0000000000
C          C       0.27407   0.77262  -0.02040   0.0000000000
C          C       0.29746   0.45544   0.00808   0.0000000000
C          C       0.54456   0.84202   0.00808   0.0000000000
C          C       0.15798   0.70254   0.00808   0.0000000000
C          C       0.34888   0.46221   0.17483   0.0000000000
C          C       0.53779   0.88667   0.17483   0.0000000000
C          C       0.11333   0.65112   0.17483   0.0000000000
C          C       0.36322   0.41565   0.18619   0.0000000000
C          C       0.58435   0.94757   0.18619   0.0000000000
C          C       0.05243   0.63678   0.18619   0.0000000000
C          C       0.32577   0.35995   0.03720   0.0000000000
C          C       0.64005   0.96582   0.03720   0.0000000000
C          C       0.03418   0.67423   0.03720   0.0000000000
C          C       0.27496   0.35255  -0.13145   0.0000000000
C          C       0.64745   0.92241  -0.13145   0.0000000000
C          C       0.07759   0.72504  -0.13145   0.0000000000
C          C       0.26173   0.39955  -0.14622   0.0000000000
C          C       0.60045   0.86218  -0.14622   0.0000000000
C          C       0.13782   0.73827  -0.14622   0.0000000000
H          H       0.37664   0.50165   0.29222   0.0000000000
H          H       0.49835   0.87499   0.29222   0.0000000000
H          H       0.12501   0.62336   0.29222   0.0000000000
H          H       0.40058   0.42200   0.30731   0.0000000000
H          H       0.57800   0.97858   0.30731   0.0000000000
H          H       0.02142   0.59942   0.30731   0.0000000000
H          H       0.24774   0.31307  -0.24832   0.0000000000
H          H       0.68693   0.93467  -0.24832   0.0000000000
H          H       0.06533   0.75226  -0.24832   0.0000000000
H          H       0.22511   0.39204  -0.27202   0.0000000000
H          H       0.60796   0.83307  -0.27202   0.0000000000
H          H       0.16693   0.77489  -0.27202   0.0000000000
C          C       0.16798   0.45070  -0.01667   0.0000000000
C          C       0.54930   0.71729  -0.01667   0.0000000000
C          C       0.28271   0.83202  -0.01667   0.0000000000
C          C       0.15281   0.39880   0.16594   0.0000000000
C          C       0.60120   0.75401   0.16594   0.0000000000
C          C       0.24599   0.84719   0.16594   0.0000000000
C          C       0.09408   0.34889   0.17373   0.0000000000
C          C       0.65111   0.74518   0.17373   0.0000000000
C          C       0.25482   0.90592   0.17373   0.0000000000
C          C       0.04734   0.34953   0.00236   0.0000000000
C          C       0.65047   0.69781   0.00236   0.0000000000
C          C       0.30219   0.95266   0.00236   0.0000000000
C          C       0.06059   0.40115  -0.17788   0.0000000000
C          C       0.59885   0.65944  -0.17788   0.0000000000
C          C       0.34055   0.93941  -0.17788   0.0000000000
C          C       0.12004   0.45071  -0.18763   0.0000000000
C          C       0.54929   0.66933  -0.18763   0.0000000000
C          C       0.33067   0.87996  -0.18763   0.0000000000
H          H       0.18473   0.39685   0.29698   0.0000000000
H          H       0.60315   0.78788   0.29698   0.0000000000
H          H       0.21212   0.81527   0.29698   0.0000000000
H          H       0.08532   0.31204   0.30796   0.0000000000
H          H       0.68796   0.77328   0.30796   0.0000000000
H          H       0.22672   0.91468   0.30796   0.0000000000
H          H       0.02744   0.40273  -0.30478   0.0000000000
H          H       0.59727   0.62471  -0.30478   0.0000000000
H          H       0.37529   0.97256  -0.30478   0.0000000000
H          H       0.12829   0.48724  -0.32393   0.0000000000
H          H       0.51276   0.64106  -0.32393   0.0000000000
H          H       0.35894   0.87170  -0.32393   0.0000000000
N          N       0.33944   0.31524   0.05395   0.0000000000
N          N       0.68476   0.02420   0.05395   0.0000000000
N          N       0.97580   0.66056   0.05395   0.0000000000
C          C       0.29904   0.25582   0.09372   0.0000000000
C          C       0.74418   0.04322   0.09372   0.0000000000
C          C       0.95678   0.70095   0.09372   0.0000000000
H          H       0.25529   0.24356   0.14762   0.0000000000
H          H       0.75644   0.01173   0.14762   0.0000000000
H          H       0.98827   0.74471   0.14762   0.0000000000
N          N       0.99290   0.29890   0.02652   0.0000000000
N          N       0.70110   0.69400   0.02652   0.0000000000
N          N       0.30600   0.00710   0.02652   0.0000000000
C          C       0.93760   0.28227  -0.09141   0.0000000000
C          C       0.71773   0.65533  -0.09141   0.0000000000
C          C       0.34467   0.06240  -0.09141   0.0000000000
H          H       0.93135   0.31185  -0.22706   0.0000000000
H          H       0.68815   0.61950  -0.22706   0.0000000000
H          H       0.38050   0.06865  -0.22706   0.0000000000
