data_crystal
 
_cell_length_a    25.83000
_cell_length_b    25.83000
_cell_length_c    4.10000
_cell_angle_alpha 90.00000
_cell_angle_beta  90.00000
_cell_angle_gamma 120.00000
 
_symmetry_space_group_name_Hall 'P 1'
_symmetry_space_group_name_H-M  'P 1'
 
loop_
_symmetry_equiv_pos_as_xyz
 'x,y,z' 
 
loop_
_atom_site_label
_atom_site_type_symbol
_atom_site_fract_x
_atom_site_fract_y
_atom_site_fract_z
_atom_site_charge
H          H       1.28380   0.80217   0.49772   0.0000000000
H          H       1.36622   0.85560   0.59533   0.0000000000
H          H       1.33327   0.95096   1.08476   0.0000000000
H          H       1.25099   0.89875   1.00005   0.0000000000
H          H       1.14580   0.67399   0.56397   0.0000000000
H          H       1.16951   0.61710   0.67101   0.0000000000
H          H       1.29555   0.72292   1.13310   0.0000000000
H          H       1.27280   0.78064   1.03902   0.0000000000
H          H       0.93156   0.59481   1.32488   0.0000000000
H          H       0.90641   0.51207   1.32081   0.0000000000
H          H       1.02444   0.53857   0.72704   0.0000000000
H          H       1.05034   0.62102   0.71853   0.0000000000
H          H       0.93336   0.72560   1.26530   0.0000000000
H          H       0.85211   0.70136   1.17545   0.0000000000
H          H       0.83080   0.57566   0.70322   0.0000000000
H          H       0.91116   0.59813   0.78183   0.0000000000
H          H       1.08381   0.96100   0.89385   0.0000000000
H          H       1.02751   0.98670   0.94127   0.0000000000
H          H       0.92532   0.85311   1.33674   0.0000000000
H          H       0.98122   0.82556   1.30894   0.0000000000
H          H       1.20363   0.94552   0.79869   0.0000000000
H          H       1.26269   1.02445   0.92060   0.0000000000
H          H       1.16640   1.04017   1.53933   0.0000000000
H          H       1.10628   0.96012   1.43357   0.0000000000
H          H       0.87935   0.87877   0.99941   0.0000000000
H          H       1.31191   1.09400   1.06042   0.0000000000
H          H       1.40864   1.00132   0.87073   0.0000000000
H          H       1.19471   0.57062   0.79003   0.0000000000
H          H       0.99559   0.46377   0.74717   0.0000000000
H          H       0.77699   0.67201   1.09161   0.0000000000
H          H       1.46354   0.94464   1.36387   0.0000000000
H          H       1.54160   0.98533   1.58092   0.0000000000
H          H       1.56683   1.11223   1.09300   0.0000000000
H          H       1.48756   1.07177   0.89414   0.0000000000
H          H       1.37857   1.17117   0.96020   0.0000000000
H          H       1.41939   1.25540   1.01650   0.0000000000
H          H       1.31068   1.24344   1.66364   0.0000000000
H          H       1.27007   1.15960   1.60104   0.0000000000
H          H       1.60157   0.99814   1.28222   0.0000000000
H          H       1.67863   1.02315   1.09357   0.0000000000
H          H       1.71346   1.16810   1.19126   0.0000000000
H          H       1.63502   1.14263   1.37205   0.0000000000
H          H       1.45931   1.32733   1.26401   0.0000000000
H          H       1.48516   1.40725   1.11948   0.0000000000
H          H       1.34159   1.37852   1.17986   0.0000000000
H          H       1.31669   1.30009   1.33987   0.0000000000
H          H       1.84459   1.15771   0.90677   0.0000000000
H          H       1.89530   1.23702   0.74289   0.0000000000
H          H       1.77476   1.25288   0.55239   0.0000000000
H          H       1.72353   1.17267   0.71372   0.0000000000
H          H       1.72199   1.03369   0.64278   0.0000000000
H          H       1.75295   0.98065   0.69967   0.0000000000
H          H       1.84756   1.07182   1.43943   0.0000000000
H          H       1.81475   1.12240   1.38134   0.0000000000
H          H       1.48716   1.42585   0.65767   0.0000000000
H          H       1.56670   1.47879   0.50234   0.0000000000
H          H       1.55190   1.59568   0.82724   0.0000000000
H          H       1.47471   1.54316   0.99890   0.0000000000
H          H       1.43364   1.51081   1.41678   0.0000000000
H          H       1.37956   1.53981   1.45954   0.0000000000
H          H       1.29365   1.44243   0.71530   0.0000000000
H          H       1.35021   1.41609   0.66880   0.0000000000
H          H       1.35036   1.57842   1.35428   0.0000000000
H          H       1.30866   1.61906   1.26965   0.0000000000
H          H       1.20272   1.50166   0.73059   0.0000000000
H          H       1.24350   1.45934   0.81752   0.0000000000
H          H       1.92945   1.30681   0.41499   0.0000000000
H          H       1.98102   1.38949   0.52901   0.0000000000
H          H       1.86900   1.39316   1.04650   0.0000000000
H          H       1.81741   1.31132   0.93407   0.0000000000
H          H       1.77007   0.93122   0.84352   0.0000000000
H          H       1.81112   0.88786   0.83949   0.0000000000
H          H       1.92607   1.00005   1.36035   0.0000000000
H          H       1.88747   1.04426   1.35626   0.0000000000
H          H       1.63540   1.52730   0.39071   0.0000000000
H          H       1.71685   1.56599   0.52685   0.0000000000
H          H       1.69994   1.66332   1.12811   0.0000000000
H          H       1.61827   1.62442   1.00429   0.0000000000
C          C       1.07089   0.73474   0.88545   0.0000000000
C          C       1.11777   0.76033   0.82325   0.0000000000
C          C       1.14013   0.80737   0.84733   0.0000000000
C          C       1.11571   0.82935   0.92116   0.0000000000
C          C       1.06942   0.80429   0.98842   0.0000000000
C          C       1.04691   0.75645   0.97348   0.0000000000
C          C       1.11644   0.89756   1.04023   0.0000000000
C          C       1.06925   0.87313   1.07349   0.0000000000
C          C       0.98000   0.68468   1.02215   0.0000000000
C          C       1.00546   0.66327   0.97372   0.0000000000
C          C       1.18865   0.76359   0.76238   0.0000000000
C          C       1.21087   0.81114   0.76296   0.0000000000
C          C       1.03876   0.89101   1.11011   0.0000000000
C          C       1.14838   0.94533   1.09559   0.0000000000
C          C       0.93079   0.66423   1.03833   0.0000000000
C          C       0.99168   0.61560   1.00441   0.0000000000
C          C       1.25894   0.84407   0.75024   0.0000000000
C          C       1.20784   0.73376   0.77735   0.0000000000
C          C       1.29379   0.83479   0.62492   0.0000000000
C          C       1.34053   0.86494   0.68200   0.0000000000
C          C       1.35582   0.90678   0.85136   0.0000000000
C          C       1.32248   0.91846   0.95176   0.0000000000
C          C       1.27573   0.88903   0.89865   0.0000000000
C          C       1.17979   0.68581   0.68056   0.0000000000
C          C       1.19289   0.65332   0.74714   0.0000000000
C          C       1.23463   0.66579   0.90987   0.0000000000
C          C       1.26301   0.71256   1.00159   0.0000000000
C          C       1.25100   0.74592   0.93539   0.0000000000
C          C       0.95192   0.58308   1.18653   0.0000000000
C          C       0.93807   0.53635   1.18801   0.0000000000
C          C       0.96270   0.51885   1.01944   0.0000000000
C          C       1.00379   0.55066   0.85941   0.0000000000
C          C       1.01857   0.59757   0.85457   0.0000000000
C          C       0.91084   0.69147   1.15123   0.0000000000
C          C       0.86489   0.67817   1.09369   0.0000000000
C          C       0.83528   0.63656   0.93016   0.0000000000
C          C       0.85344   0.60823   0.83316   0.0000000000
C          C       0.89911   0.62043   0.88964   0.0000000000
C          C       1.05024   0.93705   1.00650   0.0000000000
C          C       1.01791   0.95145   1.02511   0.0000000000
C          C       0.97279   0.92189   1.14220   0.0000000000
C          C       0.96056   0.87674   1.24351   0.0000000000
C          C       0.99219   0.86139   1.22976   0.0000000000
C          C       1.19451   0.96598   0.96089   0.0000000000
C          C       1.22826   1.01082   1.03279   0.0000000000
C          C       1.21897   1.03854   1.23988   0.0000000000
C          C       1.17410   1.01913   1.37341   0.0000000000
C          C       1.13961   0.97421   1.30657   0.0000000000
C          C       0.89751   0.91523   1.08319   0.0000000000
C          C       1.29510   1.10854   1.21207   0.0000000000
C          C       1.42404   0.98029   0.95231   0.0000000000
C          C       1.22835   0.58951   0.91585   0.0000000000
C          C       0.96075   0.44741   0.85778   0.0000000000
C          C       0.76390   0.64075   0.94007   0.0000000000
C          C       1.32065   1.15829   1.27227   0.0000000000
C          C       1.46930   1.00461   1.10476   0.0000000000
C          C       1.48566   0.98190   1.30689   0.0000000000
C          C       1.52949   1.00539   1.44081   0.0000000000
C          C       1.56159   1.05225   1.35497   0.0000000000
C          C       1.54325   1.07644   1.17734   0.0000000000
C          C       1.49884   1.05267   1.05138   0.0000000000
C          C       1.36392   1.18665   1.12275   0.0000000000
C          C       1.38795   1.23437   1.16112   0.0000000000
C          C       1.36882   1.25707   1.34735   0.0000000000
C          C       1.32666   1.22778   1.51494   0.0000000000
C          C       1.30330   1.18021   1.47347   0.0000000000
C          C       1.38570   1.30616   1.31468   0.0000000000
C          C       1.61082   1.06807   1.34777   0.0000000000
C          C       1.62646   1.03594   1.27787   0.0000000000
C          C       1.67034   1.05053   1.15493   0.0000000000
C          C       1.70282   1.09823   1.10584   0.0000000000
C          C       1.68877   1.13028   1.20043   0.0000000000
C          C       1.64475   1.11596   1.32086   0.0000000000
C          C       1.43323   1.33866   1.24914   0.0000000000
C          C       1.44742   1.38372   1.15176   0.0000000000
C          C       1.41553   1.39988   1.11052   0.0000000000
C          C       1.36858   1.36840   1.19314   0.0000000000
C          C       1.35418   1.32361   1.29627   0.0000000000
C          C       1.47484   1.47867   0.87199   0.0000000000
C          C       1.39646   1.46216   1.03470   0.0000000000
C          C       1.76626   1.08175   1.00836   0.0000000000
C          C       1.77910   1.15891   0.84965   0.0000000000
C          C       1.82799   1.17788   0.83234   0.0000000000
C          C       1.85736   1.22258   0.72053   0.0000000000
C          C       1.83967   1.25255   0.63593   0.0000000000
C          C       1.79043   1.23154   0.61951   0.0000000000
C          C       1.76144   1.18665   0.72774   0.0000000000
C          C       1.74917   1.04109   0.82249   0.0000000000
C          C       1.76665   1.01117   0.85801   0.0000000000
C          C       1.80338   1.02092   1.07535   0.0000000000
C          C       1.82001   1.06216   1.26036   0.0000000000
C          C       1.80161   1.09117   1.23004   0.0000000000
C          C       1.50179   1.46327   0.70774   0.0000000000
C          C       1.54651   1.49404   0.60130   0.0000000000
C          C       1.56823   1.54271   0.66333   0.0000000000
C          C       1.53842   1.55831   0.78236   0.0000000000
C          C       1.49404   1.52751   0.89242   0.0000000000
C          C       1.40307   1.49655   1.25761   0.0000000000
C          C       1.37173   1.51233   1.28299   0.0000000000
C          C       1.33095   1.49407   1.09154   0.0000000000
C          C       1.32363   1.45760   0.87867   0.0000000000
C          C       1.35588   1.44297   0.84654   0.0000000000
C          C       1.30145   1.51483   1.09066   0.0000000000
C          C       1.61854   1.57205   0.68125   0.0000000000
C          C       1.86852   1.30220   0.65554   0.0000000000
C          C       1.82474   0.99218   1.09826   0.0000000000
C          C       1.31724   1.55998   1.22305   0.0000000000
C          C       1.29377   1.58375   1.16873   0.0000000000
C          C       1.25242   1.56419   0.98775   0.0000000000
C          C       1.23494   1.51847   0.87307   0.0000000000
C          C       1.25808   1.49420   0.92482   0.0000000000
C          C       1.91588   1.32608   0.54907   0.0000000000
C          C       1.94493   1.37254   0.61815   0.0000000000
C          C       1.92933   1.39836   0.79425   0.0000000000
C          C       1.88274   1.37493   0.90249   0.0000000000
C          C       1.85286   1.32882   0.83303   0.0000000000
C          C       1.80435   0.94678   0.96039   0.0000000000
C          C       1.82766   0.92207   0.95848   0.0000000000
C          C       1.87220   0.94033   1.09590   0.0000000000
C          C       1.89171   0.98433   1.24376   0.0000000000
C          C       1.86912   1.00950   1.24630   0.0000000000
C          C       1.64904   1.55777   0.54939   0.0000000000
C          C       1.69549   1.57958   0.63107   0.0000000000
C          C       1.71550   1.61798   0.84097   0.0000000000
C          C       1.68623   1.63388   0.95999   0.0000000000
C          C       1.63966   1.61230   0.88219   0.0000000000
N          N       1.13979   0.87519   0.94563   0.0000000000
N          N       1.04536   0.82490   1.06659   0.0000000000
N          N       1.00183   0.73266   1.04109   0.0000000000
N          N       1.05151   0.68885   0.88418   0.0000000000
N          N       1.14073   0.73789   0.76868   0.0000000000
N          N       1.18572   0.83335   0.81256   0.0000000000
N          N       0.94142   0.93831   1.15422   0.0000000000
N          N       1.25250   1.08467   1.31446   0.0000000000
N          N       1.40298   0.93517   0.93052   0.0000000000
N          N       1.24888   0.63355   0.98514   0.0000000000
N          N       0.94439   0.47044   1.00689   0.0000000000
N          N       0.78874   0.62228   0.85563   0.0000000000
N          N       1.42949   1.44657   1.00263   0.0000000000
N          N       1.74858   1.11299   0.97771   0.0000000000
