data_crystal

_cell_length_a    22.50600
_cell_length_b    22.50600
_cell_length_c    7.00000
_cell_angle_alpha 90.00000
_cell_angle_beta  90.00000
_cell_angle_gamma 120.00000

_space_group_name_Hall 'P 1'
_space_group_name_H-M_alt  'P 1'

loop_
_symmetry_equiv_pos_as_xyz
'x,y,z' 

loop_
_atom_site_label
_atom_site_type_symbol
_atom_site_fract_x
_atom_site_fract_y
_atom_site_fract_z
H          H       0.41048   0.08454   0.12860 
H          H       0.91546   0.32594   0.12860 
H          H       0.67406   0.58952   0.12860 
H          H       0.58952   0.91546   0.12860 
H          H       0.08454   0.67406   0.12860 
H          H       0.32594   0.41048   0.12860 
H          H       0.58952   0.91546  -0.12860 
H          H       0.08454   0.67406  -0.12860 
H          H       0.32594   0.41048  -0.12860 
H          H       0.41048   0.08454  -0.12860 
H          H       0.91546   0.32594  -0.12860 
H          H       0.67406   0.58952  -0.12860 
O          O       0.75767   0.28474   0.00000 
N          N       0.55288   0.14095   0.00000 
C          C       0.71612   0.30750   0.00000 
C          C       0.64138   0.25951   0.00000 
C          C       0.61889   0.18979   0.00000 
C          C       0.52653   0.07196   0.00000 
C          C       0.57020   0.04388   0.00000 
C          C       0.45438   0.02665   0.00000 
C          C       0.40464   0.05334   0.00000 
H          H       0.62629   0.07943   0.00000 
H          H       0.65699   0.17217   0.00000 
H          H       0.51897   0.16159   0.00000 
H          H       0.35038   0.00961   0.00000 
O          O       0.71526   0.47293   0.00000 
N          N       0.85905   0.41193   0.00000 
C          C       0.69250   0.40862   0.00000 
C          C       0.74049   0.38187   0.00000 
C          C       0.81021   0.42910   0.00000 
C          C       0.92804   0.45457   0.00000 
C          C       0.95612   0.52632   0.00000 
C          C       0.97335   0.42773   0.00000 
C          C       0.94666   0.35130   0.00000 
H          H       0.92057   0.54686   0.00000 
H          H       0.82783   0.48482   0.00000 
H          H       0.83841   0.35738   0.00000 
H          H       0.99039   0.34077   0.00000 
O          O       0.52707   0.24233   0.00000 
N          N       0.58807   0.44712   0.00000 
C          C       0.59138   0.28388   0.00000 
C          C       0.61813   0.35862   0.00000 
C          C       0.57090   0.38111   0.00000 
C          C       0.54543   0.47347   0.00000 
C          C       0.47368   0.42980   0.00000 
C          C       0.57227   0.54562   0.00000 
C          C       0.64870   0.59536   0.00000 
H          H       0.45314   0.37371   0.00000 
H          H       0.51518   0.34301   0.00000 
H          H       0.64262   0.48103   0.00000 
H          H       0.65923   0.64962   0.00000 
O          O       0.24233   0.71526   0.00000 
N          N       0.44712   0.85905   0.00000 
C          C       0.28388   0.69250   0.00000 
C          C       0.35862   0.74049   0.00000 
C          C       0.38111   0.81021   0.00000 
C          C       0.47347   0.92804   0.00000 
C          C       0.42980   0.95612   0.00000 
C          C       0.54562   0.97335   0.00000 
C          C       0.59536   0.94666   0.00000 
H          H       0.37371   0.92057   0.00000 
H          H       0.34301   0.82783   0.00000 
H          H       0.48103   0.83841   0.00000 
H          H       0.64962   0.99039   0.00000 
O          O       0.28474   0.52707   0.00000 
N          N       0.14095   0.58807   0.00000 
C          C       0.30750   0.59138   0.00000 
C          C       0.25951   0.61813   0.00000 
C          C       0.18979   0.57090   0.00000 
C          C       0.07196   0.54543   0.00000 
C          C       0.04388   0.47368   0.00000 
C          C       0.02665   0.57227   0.00000 
C          C       0.05334   0.64870   0.00000 
H          H       0.07943   0.45314   0.00000 
H          H       0.17217   0.51518   0.00000 
H          H       0.16159   0.64262   0.00000 
H          H       0.00961   0.65923   0.00000 
O          O       0.47293   0.75767   0.00000 
N          N       0.41193   0.55288   0.00000 
C          C       0.40862   0.71612   0.00000 
C          C       0.38187   0.64138   0.00000 
C          C       0.42910   0.61889   0.00000 
C          C       0.45457   0.52653   0.00000 
C          C       0.52632   0.57020   0.00000 
C          C       0.42773   0.45438   0.00000 
C          C       0.35130   0.40464   0.00000 
H          H       0.54686   0.62629   0.00000 
H          H       0.48482   0.65699   0.00000 
H          H       0.35738   0.51897   0.00000 
H          H       0.34077   0.35038   0.00000 
H          H       0.41048   0.08454   0.62860 
H          H       0.91546   0.32594   0.62860 
H          H       0.67406   0.58952   0.62860 
H          H       0.58952   0.91546   0.62860 
H          H       0.08454   0.67406   0.62860 
H          H       0.32594   0.41048   0.62860 
H          H       0.58952   0.91546   0.37140 
H          H       0.08454   0.67406   0.37140 
H          H       0.32594   0.41048   0.37140 
H          H       0.41048   0.08454   0.37140 
H          H       0.91546   0.32594   0.37140 
H          H       0.67406   0.58952   0.37140 
O          O       0.75767   0.28474   0.50000 
N          N       0.55288   0.14095   0.50000 
C          C       0.71612   0.30750   0.50000 
C          C       0.64138   0.25951   0.50000 
C          C       0.61889   0.18979   0.50000 
C          C       0.52653   0.07196   0.50000 
C          C       0.57020   0.04388   0.50000 
C          C       0.45438   0.02665   0.50000 
C          C       0.40464   0.05334   0.50000 
H          H       0.62629   0.07943   0.50000 
H          H       0.65699   0.17217   0.50000 
H          H       0.51897   0.16159   0.50000 
H          H       0.35038   0.00961   0.50000 
O          O       0.71526   0.47293   0.50000 
N          N       0.85905   0.41193   0.50000 
C          C       0.69250   0.40862   0.50000 
C          C       0.74049   0.38187   0.50000 
C          C       0.81021   0.42910   0.50000 
C          C       0.92804   0.45457   0.50000 
C          C       0.95612   0.52632   0.50000 
C          C       0.97335   0.42773   0.50000 
C          C       0.94666   0.35130   0.50000 
H          H       0.92057   0.54686   0.50000 
H          H       0.82783   0.48482   0.50000 
H          H       0.83841   0.35738   0.50000 
H          H       0.99039   0.34077   0.50000 
O          O       0.52707   0.24233   0.50000 
N          N       0.58807   0.44712   0.50000 
C          C       0.59138   0.28388   0.50000 
C          C       0.61813   0.35862   0.50000 
C          C       0.57090   0.38111   0.50000 
C          C       0.54543   0.47347   0.50000 
C          C       0.47368   0.42980   0.50000 
C          C       0.57227   0.54562   0.50000 
C          C       0.64870   0.59536   0.50000 
H          H       0.45314   0.37371   0.50000 
H          H       0.51518   0.34301   0.50000 
H          H       0.64262   0.48103   0.50000 
H          H       0.65923   0.64962   0.50000 
O          O       0.24233   0.71526   0.50000 
N          N       0.44712   0.85905   0.50000 
C          C       0.28388   0.69250   0.50000 
C          C       0.35862   0.74049   0.50000 
C          C       0.38111   0.81021   0.50000 
C          C       0.47347   0.92804   0.50000 
C          C       0.42980   0.95612   0.50000 
C          C       0.54562   0.97335   0.50000 
C          C       0.59536   0.94666   0.50000 
H          H       0.37371   0.92057   0.50000 
H          H       0.34301   0.82783   0.50000 
H          H       0.48103   0.83841   0.50000 
H          H       0.64962   0.99039   0.50000 
O          O       0.28474   0.52707   0.50000 
N          N       0.14095   0.58807   0.50000 
C          C       0.30750   0.59138   0.50000 
C          C       0.25951   0.61813   0.50000 
C          C       0.18979   0.57090   0.50000 
C          C       0.07196   0.54543   0.50000 
C          C       0.04388   0.47368   0.50000 
C          C       0.02665   0.57227   0.50000 
C          C       0.05334   0.64870   0.50000 
H          H       0.07943   0.45314   0.50000 
H          H       0.17217   0.51518   0.50000 
H          H       0.16159   0.64262   0.50000 
H          H       0.00961   0.65923   0.50000 
O          O       0.47293   0.75767   0.50000 
N          N       0.41193   0.55288   0.50000 
C          C       0.40862   0.71612   0.50000 
C          C       0.38187   0.64138   0.50000 
C          C       0.42910   0.61889   0.50000 
C          C       0.45457   0.52653   0.50000 
C          C       0.52632   0.57020   0.50000 
C          C       0.42773   0.45438   0.50000 
C          C       0.35130   0.40464   0.50000 
H          H       0.54686   0.62629   0.50000 
H          H       0.48482   0.65699   0.50000 
H          H       0.35738   0.51897   0.50000 
H          H       0.34077   0.35038   0.50000 
