data_crystal
 
_cell_length_a    22.55600
_cell_length_b    22.55600
_cell_length_c    3.40000
_cell_angle_alpha 90.00000
_cell_angle_beta  90.00000
_cell_angle_gamma 120.00000
 
_symmetry_space_group_name_Hall 'P 1'
_symmetry_space_group_name_H-M  'P 1'
 
loop_
_symmetry_equiv_pos_as_xyz
 'x,y,z' 
 
loop_
_atom_site_label
_atom_site_type_symbol
_atom_site_fract_x
_atom_site_fract_y
_atom_site_fract_z
_atom_site_charge
O          O       0.28355   0.52709   0.50000   0.0000000000
N          N       0.41129   0.55212   0.50000   0.0000000000
C          C       0.30695   0.59146   0.50000   0.0000000000
C          C       0.38113   0.64063   0.50000   0.0000000000
C          C       0.42797   0.61784   0.50000   0.0000000000
C          C       0.45481   0.52704   0.50000   0.0000000000
C          C       0.42936   0.45590   0.50000   0.0000000000
C          C       0.52674   0.57065   0.50000   0.0000000000
H          H       0.37353   0.42043   0.50000   0.0000000000
H          H       0.48370   0.65597   0.50000   0.0000000000
H          H       0.54893   0.62685   0.50000   0.0000000000
H          H       0.35757   0.51744   0.50000   0.0000000000
O          O       0.47291   0.75646   0.50000   0.0000000000
N          N       0.44788   0.85917   0.50000   0.0000000000
C          C       0.40854   0.71549   0.50000   0.0000000000
C          C       0.35937   0.74050   0.50000   0.0000000000
C          C       0.38216   0.81013   0.50000   0.0000000000
C          C       0.47296   0.92777   0.50000   0.0000000000
C          C       0.54410   0.97346   0.50000   0.0000000000
C          C       0.42935   0.95609   0.50000   0.0000000000
H          H       0.57957   0.95310   0.50000   0.0000000000
H          H       0.34403   0.82773   0.50000   0.0000000000
H          H       0.37315   0.92208   0.50000   0.0000000000
H          H       0.48256   0.84013   0.50000   0.0000000000
O          O       0.24354   0.71645   0.50000   0.0000000000
N          N       0.14083   0.58871   0.50000   0.0000000000
C          C       0.28451   0.69305   0.50000   0.0000000000
C          C       0.25950   0.61887   0.50000   0.0000000000
C          C       0.18987   0.57203   0.50000   0.0000000000
C          C       0.07223   0.54519   0.50000   0.0000000000
C          C       0.02654   0.57064   0.50000   0.0000000000
C          C       0.04391   0.47326   0.50000   0.0000000000
H          H       0.04690   0.62647   0.50000   0.0000000000
H          H       0.17227   0.51630   0.50000   0.0000000000
H          H       0.07792   0.45107   0.50000   0.0000000000
H          H       0.15987   0.64243   0.50000   0.0000000000
O          O       0.71645   0.47291   0.50000   0.0000000000
N          N       0.58871   0.44788   0.50000   0.0000000000
C          C       0.69305   0.40854   0.50000   0.0000000000
C          C       0.61887   0.35937   0.50000   0.0000000000
C          C       0.57203   0.38216   0.50000   0.0000000000
C          C       0.54519   0.47296   0.50000   0.0000000000
C          C       0.57064   0.54410   0.50000   0.0000000000
C          C       0.47326   0.42935   0.50000   0.0000000000
H          H       0.62647   0.57957   0.50000   0.0000000000
H          H       0.51630   0.34403   0.50000   0.0000000000
H          H       0.45107   0.37315   0.50000   0.0000000000
H          H       0.64243   0.48256   0.50000   0.0000000000
O          O       0.52709   0.24354   0.50000   0.0000000000
N          N       0.55212   0.14083   0.50000   0.0000000000
C          C       0.59146   0.28451   0.50000   0.0000000000
C          C       0.64063   0.25950   0.50000   0.0000000000
C          C       0.61784   0.18987   0.50000   0.0000000000
C          C       0.52704   0.07223   0.50000   0.0000000000
C          C       0.45590   0.02654   0.50000   0.0000000000
C          C       0.57065   0.04391   0.50000   0.0000000000
H          H       0.42043   0.04690   0.50000   0.0000000000
H          H       0.65597   0.17227   0.50000   0.0000000000
H          H       0.62685   0.07792   0.50000   0.0000000000
H          H       0.51744   0.15987   0.50000   0.0000000000
O          O       0.75646   0.28355   0.50000   0.0000000000
N          N       0.85917   0.41129   0.50000   0.0000000000
C          C       0.71549   0.30695   0.50000   0.0000000000
C          C       0.74050   0.38113   0.50000   0.0000000000
C          C       0.81013   0.42797   0.50000   0.0000000000
C          C       0.92777   0.45481   0.50000   0.0000000000
C          C       0.97346   0.42936   0.50000   0.0000000000
C          C       0.95609   0.52674   0.50000   0.0000000000
H          H       0.95310   0.37353   0.50000   0.0000000000
H          H       0.82773   0.48370   0.50000   0.0000000000
H          H       0.92208   0.54893   0.50000   0.0000000000
H          H       0.84013   0.35757   0.50000   0.0000000000
