data_crystal
 
_cell_length_a    35.35140
_cell_length_b    35.42800
_cell_length_c    13.57440
_cell_angle_alpha 90.00000
_cell_angle_beta  90.00000
_cell_angle_gamma 90.00000
 
_symmetry_space_group_name_Hall 'P 1'
_symmetry_space_group_name_H-M  'P 1'
 
loop_
_symmetry_equiv_pos_as_xyz
 'x,y,z' 
 
loop_
_atom_site_label
_atom_site_type_symbol
_atom_site_fract_x
_atom_site_fract_y
_atom_site_fract_z
_atom_site_charge
C          C       0.71202   0.74010   0.25000   0.0000000000
C          C       0.21202   0.24010   0.25000   0.0000000000
C          C       0.28798   0.25990   0.25000   0.0000000000
C          C       0.78798   0.75990   0.25000   0.0000000000
C          C       0.28798   0.74010   0.25000   0.0000000000
C          C       0.78798   0.24010   0.25000   0.0000000000
C          C       0.71202   0.25990   0.25000   0.0000000000
C          C       0.21202   0.75990   0.25000   0.0000000000
O          O       0.67730   0.72448   0.25000   0.0000000000
O          O       0.17729   0.22448   0.25000   0.0000000000
O          O       0.32271   0.27552   0.25000   0.0000000000
O          O       0.82271   0.77552   0.25000   0.0000000000
O          O       0.32271   0.72448   0.25000   0.0000000000
O          O       0.82271   0.22448   0.25000   0.0000000000
O          O       0.67730   0.27552   0.25000   0.0000000000
O          O       0.17729   0.77552   0.25000   0.0000000000
C          C       0.72119   0.77867   0.25000   0.0000000000
C          C       0.22119   0.27867   0.25000   0.0000000000
C          C       0.27881   0.22133   0.25000   0.0000000000
C          C       0.77881   0.72133   0.25000   0.0000000000
C          C       0.27881   0.77867   0.25000   0.0000000000
C          C       0.77881   0.27867   0.25000   0.0000000000
C          C       0.72119   0.22133   0.25000   0.0000000000
C          C       0.22119   0.72133   0.25000   0.0000000000
C          C       0.75982   0.78792   0.25000   0.0000000000
C          C       0.25982   0.28792   0.25000   0.0000000000
C          C       0.24018   0.21208   0.25000   0.0000000000
C          C       0.74018   0.71207   0.25000   0.0000000000
C          C       0.24018   0.78792   0.25000   0.0000000000
C          C       0.74018   0.28792   0.25000   0.0000000000
C          C       0.75982   0.21208   0.25000   0.0000000000
C          C       0.25982   0.71207   0.25000   0.0000000000
H          H       0.70080   0.79897   0.25000   0.0000000000
H          H       0.20080   0.29897   0.25000   0.0000000000
H          H       0.29920   0.20103   0.25000   0.0000000000
H          H       0.79920   0.70103   0.25000   0.0000000000
H          H       0.29920   0.79897   0.25000   0.0000000000
H          H       0.79920   0.29897   0.25000   0.0000000000
H          H       0.70080   0.20103   0.25000   0.0000000000
H          H       0.20080   0.70103   0.25000   0.0000000000
C          C       0.58179   0.46835   0.25000   0.0000000000
C          C       0.08179   0.96835   0.25000   0.0000000000
C          C       0.41821   0.53165   0.25000   0.0000000000
C          C       0.91821   0.03165   0.25000   0.0000000000
C          C       0.41821   0.46835   0.25000   0.0000000000
C          C       0.91821   0.96835   0.25000   0.0000000000
C          C       0.58179   0.53165   0.25000   0.0000000000
C          C       0.08179   0.03165   0.25000   0.0000000000
C          C       0.61933   0.48055   0.25000   0.0000000000
C          C       0.11933   0.98055   0.25000   0.0000000000
C          C       0.38067   0.51945   0.25000   0.0000000000
C          C       0.88067   0.01945   0.25000   0.0000000000
C          C       0.38067   0.48055   0.25000   0.0000000000
C          C       0.88067   0.98055   0.25000   0.0000000000
C          C       0.61933   0.51945   0.25000   0.0000000000
C          C       0.11933   0.01945   0.25000   0.0000000000
H          H       0.64301   0.46400   0.25000   0.0000000000
H          H       0.14301   0.96400   0.25000   0.0000000000
H          H       0.35699   0.53600   0.25000   0.0000000000
H          H       0.85699   0.03600   0.25000   0.0000000000
H          H       0.35699   0.46400   0.25000   0.0000000000
H          H       0.85699   0.96400   0.25000   0.0000000000
H          H       0.64301   0.53600   0.25000   0.0000000000
H          H       0.14301   0.03600   0.25000   0.0000000000
N          N      -0.00000   0.94059   0.25000   0.0000000000
N          N       0.50000   0.44059   0.25000   0.0000000000
N          N      -0.00000   0.05941   0.25000   0.0000000000
N          N       0.50000   0.55941   0.25000   0.0000000000
C          C       0.03151   0.91875   0.25000   0.0000000000
C          C       0.53151   0.41875   0.25000   0.0000000000
C          C       0.96849   0.08125   0.25000   0.0000000000
C          C       0.46849   0.58125   0.25000   0.0000000000
C          C       0.96849   0.91875   0.25000   0.0000000000
C          C       0.46849   0.41875   0.25000   0.0000000000
C          C       0.03151   0.08125   0.25000   0.0000000000
C          C       0.53151   0.58125   0.25000   0.0000000000
C          C       0.01945   0.88124   0.25000   0.0000000000
C          C       0.51945   0.38124   0.25000   0.0000000000
C          C       0.98055   0.11876   0.25000   0.0000000000
C          C       0.48055   0.61876   0.25000   0.0000000000
C          C       0.98055   0.88124   0.25000   0.0000000000
C          C       0.48055   0.38124   0.25000   0.0000000000
C          C       0.01945   0.11876   0.25000   0.0000000000
C          C       0.51945   0.61876   0.25000   0.0000000000
H          H       0.03606   0.85762   0.25000   0.0000000000
H          H       0.53606   0.35762   0.25000   0.0000000000
H          H       0.96394   0.14238   0.25000   0.0000000000
H          H       0.46394   0.64238   0.25000   0.0000000000
H          H       0.96394   0.85762   0.25000   0.0000000000
H          H       0.46394   0.35762   0.25000   0.0000000000
H          H       0.03606   0.14238   0.25000   0.0000000000
H          H       0.53606   0.64238   0.25000   0.0000000000
C          C       0.56985   0.43026   0.25000   0.0000000000
C          C       0.06985   0.93026   0.25000   0.0000000000
C          C       0.43015   0.56973   0.25000   0.0000000000
C          C       0.93015   0.06974   0.25000   0.0000000000
C          C       0.43015   0.43026   0.25000   0.0000000000
C          C       0.93015   0.93026   0.25000   0.0000000000
C          C       0.56985   0.56973   0.25000   0.0000000000
C          C       0.06985   0.06974   0.25000   0.0000000000
C          C       0.59807   0.40202   0.25000   0.0000000000
C          C       0.09807   0.90201   0.25000   0.0000000000
C          C       0.40193   0.59798   0.25000   0.0000000000
C          C       0.90193   0.09798   0.25000   0.0000000000
C          C       0.40193   0.40202   0.25000   0.0000000000
C          C       0.90193   0.90201   0.25000   0.0000000000
C          C       0.59807   0.59798   0.25000   0.0000000000
C          C       0.09807   0.09798   0.25000   0.0000000000
C          C       0.61233   0.38775   0.33977   0.0000000000
C          C       0.11233   0.88775   0.33977   0.0000000000
C          C       0.38767   0.61225   0.33977   0.0000000000
C          C       0.88767   0.11225   0.33977   0.0000000000
C          C       0.38767   0.38775   0.16023   0.0000000000
C          C       0.88767   0.88775   0.16023   0.0000000000
C          C       0.61233   0.61225   0.16023   0.0000000000
C          C       0.11233   0.11225   0.16023   0.0000000000
C          C       0.38767   0.61225   0.16023   0.0000000000
C          C       0.88767   0.11225   0.16023   0.0000000000
C          C       0.61233   0.38775   0.16023   0.0000000000
C          C       0.11233   0.88775   0.16023   0.0000000000
C          C       0.61233   0.61225   0.33977   0.0000000000
C          C       0.11233   0.11225   0.33977   0.0000000000
C          C       0.38767   0.38775   0.33977   0.0000000000
C          C       0.88767   0.88775   0.33977   0.0000000000
H          H       0.60230   0.39779   0.40547   0.0000000000
H          H       0.10230   0.89779   0.40547   0.0000000000
H          H       0.39770   0.60221   0.40547   0.0000000000
H          H       0.89770   0.10221   0.40547   0.0000000000
H          H       0.39770   0.39779   0.09453   0.0000000000
H          H       0.89770   0.89779   0.09453   0.0000000000
H          H       0.60230   0.60221   0.09453   0.0000000000
H          H       0.10230   0.10221   0.09453   0.0000000000
H          H       0.39770   0.60221   0.09453   0.0000000000
H          H       0.89770   0.10221   0.09453   0.0000000000
H          H       0.60230   0.39779   0.09453   0.0000000000
H          H       0.10230   0.89779   0.09453   0.0000000000
H          H       0.60230   0.60221   0.40547   0.0000000000
H          H       0.10230   0.10221   0.40547   0.0000000000
H          H       0.39770   0.39779   0.40547   0.0000000000
H          H       0.89770   0.89779   0.40547   0.0000000000
C          C       0.64045   0.35961   0.33977   0.0000000000
C          C       0.14045   0.85961   0.33977   0.0000000000
C          C       0.35955   0.64039   0.33977   0.0000000000
C          C       0.85956   0.14039   0.33977   0.0000000000
C          C       0.35955   0.35961   0.16024   0.0000000000
C          C       0.85956   0.85961   0.16024   0.0000000000
C          C       0.64045   0.64039   0.16024   0.0000000000
C          C       0.14045   0.14039   0.16024   0.0000000000
C          C       0.35955   0.64039   0.16024   0.0000000000
C          C       0.85956   0.14039   0.16024   0.0000000000
C          C       0.64045   0.35961   0.16024   0.0000000000
C          C       0.14045   0.85961   0.16024   0.0000000000
C          C       0.64045   0.64039   0.33977   0.0000000000
C          C       0.14045   0.14039   0.33977   0.0000000000
C          C       0.35955   0.35961   0.33977   0.0000000000
C          C       0.85956   0.85961   0.33977   0.0000000000
H          H       0.65048   0.34957   0.40546   0.0000000000
H          H       0.15048   0.84957   0.40546   0.0000000000
H          H       0.34952   0.65043   0.40546   0.0000000000
H          H       0.84952   0.15043   0.40546   0.0000000000
H          H       0.34952   0.34957   0.09455   0.0000000000
H          H       0.84952   0.84957   0.09455   0.0000000000
H          H       0.65048   0.65043   0.09455   0.0000000000
H          H       0.15048   0.15043   0.09455   0.0000000000
H          H       0.34952   0.65043   0.09455   0.0000000000
H          H       0.84952   0.15043   0.09455   0.0000000000
H          H       0.65048   0.34957   0.09455   0.0000000000
H          H       0.15048   0.84957   0.09455   0.0000000000
H          H       0.65048   0.65043   0.40546   0.0000000000
H          H       0.15048   0.15043   0.40546   0.0000000000
H          H       0.34952   0.34957   0.40546   0.0000000000
H          H       0.84952   0.84957   0.40546   0.0000000000
C          C       0.65470   0.34535   0.25000   0.0000000000
C          C       0.15470   0.84535   0.25000   0.0000000000
C          C       0.34530   0.65465   0.25000   0.0000000000
C          C       0.84530   0.15465   0.25000   0.0000000000
C          C       0.34530   0.34535   0.25000   0.0000000000
C          C       0.84530   0.84535   0.25000   0.0000000000
C          C       0.65470   0.65465   0.25000   0.0000000000
C          C       0.15470   0.15465   0.25000   0.0000000000
O          O       0.77539   0.82261   0.25000   0.0000000000
O          O       0.27539   0.32261   0.25000   0.0000000000
O          O       0.22461   0.17738   0.25000   0.0000000000
O          O       0.72461   0.67738   0.25000   0.0000000000
O          O       0.22461   0.82261   0.25000   0.0000000000
O          O       0.72461   0.32261   0.25000   0.0000000000
O          O       0.77539   0.17738   0.25000   0.0000000000
O          O       0.27539   0.67738   0.25000   0.0000000000
B          B       0.81559   0.81562   0.25000   0.0000000000
B          B       0.31559   0.31562   0.25000   0.0000000000
B          B       0.18441   0.18438   0.25000   0.0000000000
B          B       0.68441   0.68438   0.25000   0.0000000000
B          B       0.18441   0.81562   0.25000   0.0000000000
B          B       0.68441   0.31562   0.25000   0.0000000000
B          B       0.81559   0.18438   0.25000   0.0000000000
B          B       0.31559   0.68438   0.25000   0.0000000000
N          N       0.56050   0.50000   0.25000   0.0000000000
N          N       0.06050   0.00000   0.25000   0.0000000000
N          N       0.43950   0.50000   0.25000   0.0000000000
N          N       0.93950   0.00000   0.25000   0.0000000000
H          H       0.53306   0.50000   0.25000   0.0000000000
H          H       0.03306   0.00000   0.25000   0.0000000000
H          H       0.46694   0.50000   0.25000   0.0000000000
H          H       0.96695   0.00000   0.25000   0.0000000000
C          C       0.71202   0.74010   0.75000   0.0000000000
C          C       0.21202   0.24010   0.75000   0.0000000000
C          C       0.28798   0.25990   0.75000   0.0000000000
C          C       0.78798   0.75990   0.75000   0.0000000000
C          C       0.28798   0.74010   0.75000   0.0000000000
C          C       0.78798   0.24010   0.75000   0.0000000000
C          C       0.71202   0.25990   0.75000   0.0000000000
C          C       0.21202   0.75990   0.75000   0.0000000000
O          O       0.67730   0.72448   0.75000   0.0000000000
O          O       0.17729   0.22448   0.75000   0.0000000000
O          O       0.32271   0.27552   0.75000   0.0000000000
O          O       0.82271   0.77552   0.75000   0.0000000000
O          O       0.32271   0.72448   0.75000   0.0000000000
O          O       0.82271   0.22448   0.75000   0.0000000000
O          O       0.67730   0.27552   0.75000   0.0000000000
O          O       0.17729   0.77552   0.75000   0.0000000000
C          C       0.72119   0.77867   0.75000   0.0000000000
C          C       0.22119   0.27867   0.75000   0.0000000000
C          C       0.27881   0.22133   0.75000   0.0000000000
C          C       0.77881   0.72133   0.75000   0.0000000000
C          C       0.27881   0.77867   0.75000   0.0000000000
C          C       0.77881   0.27867   0.75000   0.0000000000
C          C       0.72119   0.22133   0.75000   0.0000000000
C          C       0.22119   0.72133   0.75000   0.0000000000
C          C       0.75982   0.78792   0.75000   0.0000000000
C          C       0.25982   0.28792   0.75000   0.0000000000
C          C       0.24018   0.21208   0.75000   0.0000000000
C          C       0.74018   0.71207   0.75000   0.0000000000
C          C       0.24018   0.78792   0.75000   0.0000000000
C          C       0.74018   0.28792   0.75000   0.0000000000
C          C       0.75982   0.21208   0.75000   0.0000000000
C          C       0.25982   0.71207   0.75000   0.0000000000
H          H       0.70080   0.79897   0.75000   0.0000000000
H          H       0.20080   0.29897   0.75000   0.0000000000
H          H       0.29920   0.20103   0.75000   0.0000000000
H          H       0.79920   0.70103   0.75000   0.0000000000
H          H       0.29920   0.79897   0.75000   0.0000000000
H          H       0.79920   0.29897   0.75000   0.0000000000
H          H       0.70080   0.20103   0.75000   0.0000000000
H          H       0.20080   0.70103   0.75000   0.0000000000
C          C       0.58179   0.46835   0.75000   0.0000000000
C          C       0.08179   0.96835   0.75000   0.0000000000
C          C       0.41821   0.53165   0.75000   0.0000000000
C          C       0.91821   0.03165   0.75000   0.0000000000
C          C       0.41821   0.46835   0.75000   0.0000000000
C          C       0.91821   0.96835   0.75000   0.0000000000
C          C       0.58179   0.53165   0.75000   0.0000000000
C          C       0.08179   0.03165   0.75000   0.0000000000
C          C       0.61933   0.48055   0.75000   0.0000000000
C          C       0.11933   0.98055   0.75000   0.0000000000
C          C       0.38067   0.51945   0.75000   0.0000000000
C          C       0.88067   0.01945   0.75000   0.0000000000
C          C       0.38067   0.48055   0.75000   0.0000000000
C          C       0.88067   0.98055   0.75000   0.0000000000
C          C       0.61933   0.51945   0.75000   0.0000000000
C          C       0.11933   0.01945   0.75000   0.0000000000
H          H       0.64301   0.46400   0.75000   0.0000000000
H          H       0.14301   0.96400   0.75000   0.0000000000
H          H       0.35699   0.53600   0.75000   0.0000000000
H          H       0.85699   0.03600   0.75000   0.0000000000
H          H       0.35699   0.46400   0.75000   0.0000000000
H          H       0.85699   0.96400   0.75000   0.0000000000
H          H       0.64301   0.53600   0.75000   0.0000000000
H          H       0.14301   0.03600   0.75000   0.0000000000
N          N      -0.00000   0.94059   0.75000   0.0000000000
N          N       0.50000   0.44059   0.75000   0.0000000000
N          N       0.00000   0.05941   0.75000   0.0000000000
N          N       0.50000   0.55941   0.75000   0.0000000000
C          C       0.03151   0.91875   0.75000   0.0000000000
C          C       0.53151   0.41875   0.75000   0.0000000000
C          C       0.96849   0.08125   0.75000   0.0000000000
C          C       0.46849   0.58125   0.75000   0.0000000000
C          C       0.96849   0.91875   0.75000   0.0000000000
C          C       0.46849   0.41875   0.75000   0.0000000000
C          C       0.03151   0.08125   0.75000   0.0000000000
C          C       0.53151   0.58125   0.75000   0.0000000000
C          C       0.01945   0.88124   0.75000   0.0000000000
C          C       0.51945   0.38124   0.75000   0.0000000000
C          C       0.98055   0.11876   0.75000   0.0000000000
C          C       0.48055   0.61876   0.75000   0.0000000000
C          C       0.98055   0.88124   0.75000   0.0000000000
C          C       0.48055   0.38124   0.75000   0.0000000000
C          C       0.01945   0.11876   0.75000   0.0000000000
C          C       0.51945   0.61876   0.75000   0.0000000000
H          H       0.03606   0.85762   0.75000   0.0000000000
H          H       0.53606   0.35762   0.75000   0.0000000000
H          H       0.96394   0.14238   0.75000   0.0000000000
H          H       0.46394   0.64238   0.75000   0.0000000000
H          H       0.96394   0.85762   0.75000   0.0000000000
H          H       0.46394   0.35762   0.75000   0.0000000000
H          H       0.03606   0.14238   0.75000   0.0000000000
H          H       0.53606   0.64238   0.75000   0.0000000000
C          C       0.56985   0.43026   0.75000   0.0000000000
C          C       0.06985   0.93026   0.75000   0.0000000000
C          C       0.43015   0.56973   0.75000   0.0000000000
C          C       0.93015   0.06974   0.75000   0.0000000000
C          C       0.43015   0.43026   0.75000   0.0000000000
C          C       0.93015   0.93026   0.75000   0.0000000000
C          C       0.56985   0.56973   0.75000   0.0000000000
C          C       0.06985   0.06974   0.75000   0.0000000000
C          C       0.59807   0.40202   0.75000   0.0000000000
C          C       0.09807   0.90201   0.75000   0.0000000000
C          C       0.40193   0.59798   0.75000   0.0000000000
C          C       0.90193   0.09798   0.75000   0.0000000000
C          C       0.40193   0.40202   0.75000   0.0000000000
C          C       0.90193   0.90201   0.75000   0.0000000000
C          C       0.59807   0.59798   0.75000   0.0000000000
C          C       0.09807   0.09798   0.75000   0.0000000000
C          C       0.61233   0.38775   0.83978   0.0000000000
C          C       0.11233   0.88775   0.83978   0.0000000000
C          C       0.38767   0.61225   0.83978   0.0000000000
C          C       0.88767   0.11225   0.83978   0.0000000000
C          C       0.38767   0.38775   0.66023   0.0000000000
C          C       0.88767   0.88775   0.66023   0.0000000000
C          C       0.61233   0.61225   0.66023   0.0000000000
C          C       0.11233   0.11225   0.66023   0.0000000000
C          C       0.38767   0.61225   0.66023   0.0000000000
C          C       0.88767   0.11225   0.66023   0.0000000000
C          C       0.61233   0.38775   0.66023   0.0000000000
C          C       0.11233   0.88775   0.66023   0.0000000000
C          C       0.61233   0.61225   0.83978   0.0000000000
C          C       0.11233   0.11225   0.83978   0.0000000000
C          C       0.38767   0.38775   0.83978   0.0000000000
C          C       0.88767   0.88775   0.83978   0.0000000000
H          H       0.60230   0.39779   0.90547   0.0000000000
H          H       0.10230   0.89779   0.90547   0.0000000000
H          H       0.39770   0.60221   0.90547   0.0000000000
H          H       0.89770   0.10221   0.90547   0.0000000000
H          H       0.39770   0.39779   0.59453   0.0000000000
H          H       0.89770   0.89779   0.59453   0.0000000000
H          H       0.60230   0.60221   0.59453   0.0000000000
H          H       0.10230   0.10221   0.59453   0.0000000000
H          H       0.39770   0.60221   0.59453   0.0000000000
H          H       0.89770   0.10221   0.59453   0.0000000000
H          H       0.60230   0.39779   0.59453   0.0000000000
H          H       0.10230   0.89779   0.59453   0.0000000000
H          H       0.60230   0.60221   0.90547   0.0000000000
H          H       0.10230   0.10221   0.90547   0.0000000000
H          H       0.39770   0.39779   0.90547   0.0000000000
H          H       0.89770   0.89779   0.90547   0.0000000000
C          C       0.64045   0.35961   0.83976   0.0000000000
C          C       0.14045   0.85961   0.83976   0.0000000000
C          C       0.35955   0.64039   0.83976   0.0000000000
C          C       0.85956   0.14039   0.83976   0.0000000000
C          C       0.35955   0.35961   0.66024   0.0000000000
C          C       0.85956   0.85961   0.66024   0.0000000000
C          C       0.64045   0.64039   0.66024   0.0000000000
C          C       0.14045   0.14039   0.66024   0.0000000000
C          C       0.35955   0.64039   0.66024   0.0000000000
C          C       0.85956   0.14039   0.66024   0.0000000000
C          C       0.64045   0.35961   0.66024   0.0000000000
C          C       0.14045   0.85961   0.66024   0.0000000000
C          C       0.64045   0.64039   0.83976   0.0000000000
C          C       0.14045   0.14039   0.83976   0.0000000000
C          C       0.35955   0.35961   0.83976   0.0000000000
C          C       0.85956   0.85961   0.83976   0.0000000000
H          H       0.65048   0.34957   0.90546   0.0000000000
H          H       0.15048   0.84957   0.90546   0.0000000000
H          H       0.34952   0.65043   0.90546   0.0000000000
H          H       0.84952   0.15043   0.90546   0.0000000000
H          H       0.34952   0.34957   0.59454   0.0000000000
H          H       0.84952   0.84957   0.59454   0.0000000000
H          H       0.65048   0.65043   0.59454   0.0000000000
H          H       0.15048   0.15043   0.59454   0.0000000000
H          H       0.34952   0.65043   0.59454   0.0000000000
H          H       0.84952   0.15043   0.59454   0.0000000000
H          H       0.65048   0.34957   0.59454   0.0000000000
H          H       0.15048   0.84957   0.59454   0.0000000000
H          H       0.65048   0.65043   0.90546   0.0000000000
H          H       0.15048   0.15043   0.90546   0.0000000000
H          H       0.34952   0.34957   0.90546   0.0000000000
H          H       0.84952   0.84957   0.90546   0.0000000000
C          C       0.65470   0.34535   0.75000   0.0000000000
C          C       0.15470   0.84535   0.75000   0.0000000000
C          C       0.34530   0.65465   0.75000   0.0000000000
C          C       0.84530   0.15465   0.75000   0.0000000000
C          C       0.34530   0.34535   0.75000   0.0000000000
C          C       0.84530   0.84535   0.75000   0.0000000000
C          C       0.65470   0.65465   0.75000   0.0000000000
C          C       0.15470   0.15465   0.75000   0.0000000000
O          O       0.77539   0.82261   0.75000   0.0000000000
O          O       0.27539   0.32261   0.75000   0.0000000000
O          O       0.22461   0.17738   0.75000   0.0000000000
O          O       0.72461   0.67738   0.75000   0.0000000000
O          O       0.22461   0.82261   0.75000   0.0000000000
O          O       0.72461   0.32261   0.75000   0.0000000000
O          O       0.77539   0.17738   0.75000   0.0000000000
O          O       0.27539   0.67738   0.75000   0.0000000000
B          B       0.81559   0.81562   0.75000   0.0000000000
B          B       0.31559   0.31562   0.75000   0.0000000000
B          B       0.18441   0.18438   0.75000   0.0000000000
B          B       0.68441   0.68438   0.75000   0.0000000000
B          B       0.18441   0.81562   0.75000   0.0000000000
B          B       0.68441   0.31562   0.75000   0.0000000000
B          B       0.81559   0.18438   0.75000   0.0000000000
B          B       0.31559   0.68438   0.75000   0.0000000000
N          N       0.56050   0.50000   0.75000   0.0000000000
N          N       0.06050  -0.00000   0.75000   0.0000000000
N          N       0.43950   0.50000   0.75000   0.0000000000
N          N       0.93950  -0.00000   0.75000   0.0000000000
H          H       0.53306   0.50000   0.75000   0.0000000000
H          H       0.03306  -0.00000   0.75000   0.0000000000
H          H       0.46694   0.50000   0.75000   0.0000000000
H          H       0.96695  -0.00000   0.75000   0.0000000000
