data_crystal
 
_cell_length_a    39.35130
_cell_length_b    33.39570
_cell_length_c    13.48300
_cell_angle_alpha 90.00000
_cell_angle_beta  90.00000
_cell_angle_gamma 90.00000
 
_symmetry_space_group_name_Hall 'P 1'
_symmetry_space_group_name_H-M  'P 1'
 
loop_
_symmetry_equiv_pos_as_xyz
 'x,y,z' 
 
loop_
_atom_site_label
_atom_site_type_symbol
_atom_site_fract_x
_atom_site_fract_y
_atom_site_fract_z
_atom_site_charge
C          C       0.74094   0.29049   0.25000   0.0000000000
C          C       0.24094   0.79049   0.25000   0.0000000000
C          C       0.25906   0.70951   0.25000   0.0000000000
C          C       0.75906   0.20951   0.25000   0.0000000000
C          C       0.25906   0.29049   0.25000   0.0000000000
C          C       0.75906   0.79049   0.25000   0.0000000000
C          C       0.74094   0.70951   0.25000   0.0000000000
C          C       0.24094   0.20951   0.25000   0.0000000000
C          C       0.78429   0.23902   0.25000   0.0000000000
C          C       0.28429   0.73903   0.25000   0.0000000000
C          C       0.21571   0.76098   0.25000   0.0000000000
C          C       0.71571   0.26098   0.25000   0.0000000000
C          C       0.21571   0.23902   0.25000   0.0000000000
C          C       0.71571   0.73903   0.25000   0.0000000000
C          C       0.78429   0.76098   0.25000   0.0000000000
C          C       0.28429   0.26098   0.25000   0.0000000000
C          C       0.69838   0.18854   0.25000   0.0000000000
C          C       0.19838   0.68855   0.25000   0.0000000000
C          C       0.30162   0.81146   0.25000   0.0000000000
C          C       0.80162   0.31146   0.25000   0.0000000000
C          C       0.30162   0.18854   0.25000   0.0000000000
C          C       0.80162   0.68855   0.25000   0.0000000000
C          C       0.69838   0.81146   0.25000   0.0000000000
C          C       0.19838   0.31146   0.25000   0.0000000000
C          C       0.77542   0.27979   0.25000   0.0000000000
C          C       0.27542   0.77979   0.25000   0.0000000000
C          C       0.22458   0.72021   0.25000   0.0000000000
C          C       0.72458   0.22021   0.25000   0.0000000000
C          C       0.22458   0.27979   0.25000   0.0000000000
C          C       0.72458   0.77979   0.25000   0.0000000000
C          C       0.77542   0.72021   0.25000   0.0000000000
C          C       0.27542   0.22021   0.25000   0.0000000000
N          N       0.83374   0.30258   0.25000   0.0000000000
N          N       0.33374   0.80258   0.25000   0.0000000000
N          N       0.16626   0.69742   0.25000   0.0000000000
N          N       0.66626   0.19742   0.25000   0.0000000000
N          N       0.16626   0.30258   0.25000   0.0000000000
N          N       0.66626   0.80258   0.25000   0.0000000000
N          N       0.83374   0.69742   0.25000   0.0000000000
N          N       0.33374   0.19742   0.25000   0.0000000000
N          N       0.55840   0.00000   0.25000   0.0000000000
N          N       0.05840   0.50000   0.25000   0.0000000000
N          N       0.44160   0.00000   0.25000   0.0000000000
N          N       0.94160   0.50000   0.25000   0.0000000000
H          H       0.53401   0.00000   0.25000   0.0000000000
H          H       0.03401   0.50000   0.25000   0.0000000000
H          H       0.46599   0.00000   0.25000   0.0000000000
H          H       0.96599   0.50000   0.25000   0.0000000000
C          C       0.57697   0.96639   0.25000   0.0000000000
C          C       0.07697   0.46639   0.25000   0.0000000000
C          C       0.42303   0.03361   0.25000   0.0000000000
C          C       0.92303   0.53361   0.25000   0.0000000000
C          C       0.42303   0.96639   0.25000   0.0000000000
C          C       0.92303   0.46639   0.25000   0.0000000000
C          C       0.57697   0.03361   0.25000   0.0000000000
C          C       0.07697   0.53361   0.25000   0.0000000000
C          C       0.61066   0.97896   0.25000   0.0000000000
C          C       0.11066   0.47896   0.25000   0.0000000000
C          C       0.38934   0.02104   0.25000   0.0000000000
C          C       0.88934   0.52104   0.25000   0.0000000000
C          C       0.38934   0.97896   0.25000   0.0000000000
C          C       0.88934   0.47896   0.25000   0.0000000000
C          C       0.61066   0.02104   0.25000   0.0000000000
C          C       0.11066   0.52104   0.25000   0.0000000000
H          H       0.63286   0.95988   0.25000   0.0000000000
H          H       0.13286   0.45988   0.25000   0.0000000000
H          H       0.36714   0.04012   0.25000   0.0000000000
H          H       0.86714   0.54012   0.25000   0.0000000000
H          H       0.36714   0.95988   0.25000   0.0000000000
H          H       0.86714   0.45988   0.25000   0.0000000000
H          H       0.63286   0.04012   0.25000   0.0000000000
H          H       0.13286   0.54012   0.25000   0.0000000000
N          N      -0.00000   0.43327   0.25000   0.0000000000
N          N       0.50000   0.93327   0.25000   0.0000000000
N          N      -0.00000   0.56673   0.25000   0.0000000000
N          N       0.50000   0.06673   0.25000   0.0000000000
C          C       0.02991   0.40974   0.25000   0.0000000000
C          C       0.52991   0.90975   0.25000   0.0000000000
C          C       0.97009   0.59026   0.25000   0.0000000000
C          C       0.47009   0.09026   0.25000   0.0000000000
C          C       0.97009   0.40974   0.25000   0.0000000000
C          C       0.47009   0.90975   0.25000   0.0000000000
C          C       0.02991   0.59026   0.25000   0.0000000000
C          C       0.52991   0.09026   0.25000   0.0000000000
C          C       0.01716   0.36818   0.25000   0.0000000000
C          C       0.51716   0.86818   0.25000   0.0000000000
C          C       0.98284   0.63182   0.25000   0.0000000000
C          C       0.48284   0.13182   0.25000   0.0000000000
C          C       0.98284   0.36818   0.25000   0.0000000000
C          C       0.48284   0.86818   0.25000   0.0000000000
C          C       0.01716   0.63182   0.25000   0.0000000000
C          C       0.51716   0.13182   0.25000   0.0000000000
H          H       0.03272   0.34149   0.25000   0.0000000000
H          H       0.53273   0.84149   0.25000   0.0000000000
H          H       0.96727   0.65852   0.25000   0.0000000000
H          H       0.46727   0.15852   0.25000   0.0000000000
H          H       0.96727   0.34149   0.25000   0.0000000000
H          H       0.46727   0.84149   0.25000   0.0000000000
H          H       0.03272   0.65852   0.25000   0.0000000000
H          H       0.53273   0.15852   0.25000   0.0000000000
C          C       0.56343   0.92298   0.25000   0.0000000000
C          C       0.06343   0.42298   0.25000   0.0000000000
C          C       0.43657   0.07702   0.25000   0.0000000000
C          C       0.93657   0.57702   0.25000   0.0000000000
C          C       0.43657   0.92298   0.25000   0.0000000000
C          C       0.93657   0.42298   0.25000   0.0000000000
C          C       0.56343   0.07702   0.25000   0.0000000000
C          C       0.06343   0.57702   0.25000   0.0000000000
C          C       0.58991   0.89178   0.25000   0.0000000000
C          C       0.08991   0.39177   0.25000   0.0000000000
C          C       0.41009   0.10823   0.25000   0.0000000000
C          C       0.91009   0.60823   0.25000   0.0000000000
C          C       0.41009   0.89178   0.25000   0.0000000000
C          C       0.91009   0.39177   0.25000   0.0000000000
C          C       0.58991   0.10823   0.25000   0.0000000000
C          C       0.08991   0.60823   0.25000   0.0000000000
C          C       0.10261   0.37696   0.33994   0.0000000000
C          C       0.60261   0.87696   0.33994   0.0000000000
C          C       0.89739   0.62304   0.33994   0.0000000000
C          C       0.39739   0.12304   0.33994   0.0000000000
C          C       0.89739   0.37696   0.16006   0.0000000000
C          C       0.39739   0.87696   0.16006   0.0000000000
C          C       0.10261   0.62304   0.16006   0.0000000000
C          C       0.60261   0.12304   0.16006   0.0000000000
C          C       0.89739   0.62304   0.16006   0.0000000000
C          C       0.39739   0.12304   0.16006   0.0000000000
C          C       0.10261   0.37696   0.16006   0.0000000000
C          C       0.60261   0.87696   0.16006   0.0000000000
C          C       0.10261   0.62304   0.33994   0.0000000000
C          C       0.60261   0.12304   0.33994   0.0000000000
C          C       0.89739   0.37696   0.33994   0.0000000000
C          C       0.39739   0.87696   0.33994   0.0000000000
H          H       0.59290   0.88827   0.40964   0.0000000000
H          H       0.09290   0.38827   0.40964   0.0000000000
H          H       0.40710   0.11173   0.40964   0.0000000000
H          H       0.90710   0.61173   0.40964   0.0000000000
H          H       0.40710   0.88827   0.09036   0.0000000000
H          H       0.90710   0.38827   0.09036   0.0000000000
H          H       0.59290   0.11173   0.09036   0.0000000000
H          H       0.09290   0.61173   0.09036   0.0000000000
H          H       0.40710   0.11173   0.09036   0.0000000000
H          H       0.90710   0.61173   0.09036   0.0000000000
H          H       0.59290   0.88827   0.09036   0.0000000000
H          H       0.09290   0.38827   0.09036   0.0000000000
H          H       0.59290   0.11173   0.40964   0.0000000000
H          H       0.09290   0.61173   0.40964   0.0000000000
H          H       0.40710   0.88827   0.40964   0.0000000000
H          H       0.90710   0.38827   0.40964   0.0000000000
C          C       0.62785   0.84743   0.33978   0.0000000000
C          C       0.12785   0.34743   0.33978   0.0000000000
C          C       0.37215   0.15257   0.33978   0.0000000000
C          C       0.87215   0.65257   0.33978   0.0000000000
C          C       0.37215   0.84743   0.16022   0.0000000000
C          C       0.87215   0.34743   0.16022   0.0000000000
C          C       0.62785   0.15257   0.16022   0.0000000000
C          C       0.12785   0.65257   0.16022   0.0000000000
C          C       0.37215   0.15257   0.16022   0.0000000000
C          C       0.87215   0.65257   0.16022   0.0000000000
C          C       0.62785   0.84743   0.16022   0.0000000000
C          C       0.12785   0.34743   0.16022   0.0000000000
C          C       0.62785   0.15257   0.33978   0.0000000000
C          C       0.12785   0.65257   0.33978   0.0000000000
C          C       0.37215   0.84743   0.33978   0.0000000000
C          C       0.87215   0.34743   0.33978   0.0000000000
H          H       0.63766   0.83583   0.40893   0.0000000000
H          H       0.13766   0.33583   0.40893   0.0000000000
H          H       0.36234   0.16417   0.40893   0.0000000000
H          H       0.86234   0.66417   0.40893   0.0000000000
H          H       0.36234   0.83583   0.09107   0.0000000000
H          H       0.86234   0.33583   0.09107   0.0000000000
H          H       0.63766   0.16417   0.09107   0.0000000000
H          H       0.13766   0.66417   0.09107   0.0000000000
H          H       0.36234   0.16417   0.09107   0.0000000000
H          H       0.86234   0.66417   0.09107   0.0000000000
H          H       0.63766   0.83583   0.09107   0.0000000000
H          H       0.13766   0.33583   0.09107   0.0000000000
H          H       0.63766   0.16417   0.40893   0.0000000000
H          H       0.13766   0.66417   0.40893   0.0000000000
H          H       0.36234   0.83583   0.40893   0.0000000000
H          H       0.86234   0.33583   0.40893   0.0000000000
C          C       0.64058   0.83277   0.25000   0.0000000000
C          C       0.14058   0.33277   0.25000   0.0000000000
C          C       0.35942   0.16723   0.25000   0.0000000000
C          C       0.85942   0.66723   0.25000   0.0000000000
C          C       0.35942   0.83277   0.25000   0.0000000000
C          C       0.85942   0.33277   0.25000   0.0000000000
C          C       0.64058   0.16723   0.25000   0.0000000000
C          C       0.14058   0.66723   0.25000   0.0000000000
H          H       0.73352   0.32172   0.25000   0.0000000000
H          H       0.81074   0.23008   0.25000   0.0000000000
H          H       0.70633   0.15742   0.25000   0.0000000000
H          H       0.23352   0.82172   0.25000   0.0000000000
H          H       0.31074   0.73008   0.25000   0.0000000000
H          H       0.20633   0.65742   0.25000   0.0000000000
H          H       0.26648   0.67828   0.25000   0.0000000000
H          H       0.18926   0.76992   0.25000   0.0000000000
H          H       0.29367   0.84258   0.25000   0.0000000000
H          H       0.76648   0.17828   0.25000   0.0000000000
H          H       0.68926   0.26992   0.25000   0.0000000000
H          H       0.79367   0.34258   0.25000   0.0000000000
H          H       0.26648   0.32172   0.25000   0.0000000000
H          H       0.18926   0.23008   0.25000   0.0000000000
H          H       0.29367   0.15742   0.25000   0.0000000000
H          H       0.76648   0.82172   0.25000   0.0000000000
H          H       0.68926   0.73008   0.25000   0.0000000000
H          H       0.79367   0.65742   0.25000   0.0000000000
H          H       0.73352   0.67828   0.25000   0.0000000000
H          H       0.81074   0.76992   0.25000   0.0000000000
H          H       0.70633   0.84258   0.25000   0.0000000000
H          H       0.23352   0.17828   0.25000   0.0000000000
H          H       0.31074   0.26992   0.25000   0.0000000000
H          H       0.20633   0.34258   0.25000   0.0000000000
H          H       0.00000   0.46214   0.25000   0.0000000000
H          H       0.50000   0.96215   0.25000   0.0000000000
H          H      -0.00000   0.53786   0.25000   0.0000000000
H          H       0.50000   0.03786   0.25000   0.0000000000
C          C       0.74094   0.29049   0.75000   0.0000000000
C          C       0.24094   0.79049   0.75000   0.0000000000
C          C       0.25906   0.70951   0.75000   0.0000000000
C          C       0.75906   0.20951   0.75000   0.0000000000
C          C       0.25906   0.29049   0.75000   0.0000000000
C          C       0.75906   0.79049   0.75000   0.0000000000
C          C       0.74094   0.70951   0.75000   0.0000000000
C          C       0.24094   0.20951   0.75000   0.0000000000
C          C       0.78429   0.23902   0.75000   0.0000000000
C          C       0.28429   0.73903   0.75000   0.0000000000
C          C       0.21571   0.76098   0.75000   0.0000000000
C          C       0.71571   0.26098   0.75000   0.0000000000
C          C       0.21571   0.23902   0.75000   0.0000000000
C          C       0.71571   0.73903   0.75000   0.0000000000
C          C       0.78429   0.76098   0.75000   0.0000000000
C          C       0.28429   0.26098   0.75000   0.0000000000
C          C       0.69838   0.18854   0.75000   0.0000000000
C          C       0.19838   0.68855   0.75000   0.0000000000
C          C       0.30162   0.81146   0.75000   0.0000000000
C          C       0.80162   0.31146   0.75000   0.0000000000
C          C       0.30162   0.18854   0.75000   0.0000000000
C          C       0.80162   0.68855   0.75000   0.0000000000
C          C       0.69838   0.81146   0.75000   0.0000000000
C          C       0.19838   0.31146   0.75000   0.0000000000
C          C       0.77542   0.27979   0.75000   0.0000000000
C          C       0.27542   0.77979   0.75000   0.0000000000
C          C       0.22458   0.72021   0.75000   0.0000000000
C          C       0.72458   0.22021   0.75000   0.0000000000
C          C       0.22458   0.27979   0.75000   0.0000000000
C          C       0.72458   0.77979   0.75000   0.0000000000
C          C       0.77542   0.72021   0.75000   0.0000000000
C          C       0.27542   0.22021   0.75000   0.0000000000
N          N       0.83374   0.30258   0.75000   0.0000000000
N          N       0.33374   0.80258   0.75000   0.0000000000
N          N       0.16626   0.69742   0.75000   0.0000000000
N          N       0.66626   0.19742   0.75000   0.0000000000
N          N       0.16626   0.30258   0.75000   0.0000000000
N          N       0.66626   0.80258   0.75000   0.0000000000
N          N       0.83374   0.69742   0.75000   0.0000000000
N          N       0.33374   0.19742   0.75000   0.0000000000
N          N       0.55840   0.00000   0.75000   0.0000000000
N          N       0.05840   0.50000   0.75000   0.0000000000
N          N       0.44160   0.00000   0.75000   0.0000000000
N          N       0.94160   0.50000   0.75000   0.0000000000
H          H       0.53401   0.00000   0.75000   0.0000000000
H          H       0.03401   0.50000   0.75000   0.0000000000
H          H       0.46599   0.00000   0.75000   0.0000000000
H          H       0.96599   0.50000   0.75000   0.0000000000
C          C       0.57697   0.96639   0.75000   0.0000000000
C          C       0.07697   0.46639   0.75000   0.0000000000
C          C       0.42303   0.03361   0.75000   0.0000000000
C          C       0.92303   0.53361   0.75000   0.0000000000
C          C       0.42303   0.96639   0.75000   0.0000000000
C          C       0.92303   0.46639   0.75000   0.0000000000
C          C       0.57697   0.03361   0.75000   0.0000000000
C          C       0.07697   0.53361   0.75000   0.0000000000
C          C       0.61066   0.97896   0.75000   0.0000000000
C          C       0.11066   0.47896   0.75000   0.0000000000
C          C       0.38934   0.02104   0.75000   0.0000000000
C          C       0.88934   0.52104   0.75000   0.0000000000
C          C       0.38934   0.97896   0.75000   0.0000000000
C          C       0.88934   0.47896   0.75000   0.0000000000
C          C       0.61066   0.02104   0.75000   0.0000000000
C          C       0.11066   0.52104   0.75000   0.0000000000
H          H       0.63286   0.95988   0.75000   0.0000000000
H          H       0.13286   0.45988   0.75000   0.0000000000
H          H       0.36714   0.04012   0.75000   0.0000000000
H          H       0.86714   0.54012   0.75000   0.0000000000
H          H       0.36714   0.95988   0.75000   0.0000000000
H          H       0.86714   0.45988   0.75000   0.0000000000
H          H       0.63286   0.04012   0.75000   0.0000000000
H          H       0.13286   0.54012   0.75000   0.0000000000
N          N       0.00000   0.43327   0.75000   0.0000000000
N          N       0.50000   0.93327   0.75000   0.0000000000
N          N       0.00000   0.56673   0.75000   0.0000000000
N          N       0.50000   0.06673   0.75000   0.0000000000
C          C       0.02991   0.40974   0.75000   0.0000000000
C          C       0.52991   0.90975   0.75000   0.0000000000
C          C       0.97009   0.59026   0.75000   0.0000000000
C          C       0.47009   0.09026   0.75000   0.0000000000
C          C       0.97009   0.40974   0.75000   0.0000000000
C          C       0.47009   0.90975   0.75000   0.0000000000
C          C       0.02991   0.59026   0.75000   0.0000000000
C          C       0.52991   0.09026   0.75000   0.0000000000
C          C       0.01716   0.36818   0.75000   0.0000000000
C          C       0.51716   0.86818   0.75000   0.0000000000
C          C       0.98284   0.63182   0.75000   0.0000000000
C          C       0.48284   0.13182   0.75000   0.0000000000
C          C       0.98284   0.36818   0.75000   0.0000000000
C          C       0.48284   0.86818   0.75000   0.0000000000
C          C       0.01716   0.63182   0.75000   0.0000000000
C          C       0.51716   0.13182   0.75000   0.0000000000
H          H       0.03272   0.34149   0.75000   0.0000000000
H          H       0.53273   0.84149   0.75000   0.0000000000
H          H       0.96727   0.65852   0.75000   0.0000000000
H          H       0.46727   0.15852   0.75000   0.0000000000
H          H       0.96727   0.34149   0.75000   0.0000000000
H          H       0.46727   0.84149   0.75000   0.0000000000
H          H       0.03272   0.65852   0.75000   0.0000000000
H          H       0.53273   0.15852   0.75000   0.0000000000
C          C       0.56343   0.92298   0.75000   0.0000000000
C          C       0.06343   0.42298   0.75000   0.0000000000
C          C       0.43657   0.07702   0.75000   0.0000000000
C          C       0.93657   0.57702   0.75000   0.0000000000
C          C       0.43657   0.92298   0.75000   0.0000000000
C          C       0.93657   0.42298   0.75000   0.0000000000
C          C       0.56343   0.07702   0.75000   0.0000000000
C          C       0.06343   0.57702   0.75000   0.0000000000
C          C       0.58991   0.89178   0.75000   0.0000000000
C          C       0.08991   0.39177   0.75000   0.0000000000
C          C       0.41009   0.10823   0.75000   0.0000000000
C          C       0.91009   0.60823   0.75000   0.0000000000
C          C       0.41009   0.89178   0.75000   0.0000000000
C          C       0.91009   0.39177   0.75000   0.0000000000
C          C       0.58991   0.10823   0.75000   0.0000000000
C          C       0.08991   0.60823   0.75000   0.0000000000
C          C       0.10261   0.37696   0.83994   0.0000000000
C          C       0.60261   0.87696   0.83994   0.0000000000
C          C       0.89739   0.62304   0.83994   0.0000000000
C          C       0.39739   0.12304   0.83994   0.0000000000
C          C       0.89739   0.37696   0.66006   0.0000000000
C          C       0.39739   0.87696   0.66006   0.0000000000
C          C       0.10261   0.62304   0.66006   0.0000000000
C          C       0.60261   0.12304   0.66006   0.0000000000
C          C       0.89739   0.62304   0.66006   0.0000000000
C          C       0.39739   0.12304   0.66006   0.0000000000
C          C       0.10261   0.37696   0.66006   0.0000000000
C          C       0.60261   0.87696   0.66006   0.0000000000
C          C       0.10261   0.62304   0.83994   0.0000000000
C          C       0.60261   0.12304   0.83994   0.0000000000
C          C       0.89739   0.37696   0.83994   0.0000000000
C          C       0.39739   0.87696   0.83994   0.0000000000
H          H       0.59290   0.88827   0.90964   0.0000000000
H          H       0.09290   0.38827   0.90964   0.0000000000
H          H       0.40710   0.11173   0.90964   0.0000000000
H          H       0.90710   0.61173   0.90964   0.0000000000
H          H       0.40710   0.88827   0.59036   0.0000000000
H          H       0.90710   0.38827   0.59036   0.0000000000
H          H       0.59290   0.11173   0.59036   0.0000000000
H          H       0.09290   0.61173   0.59036   0.0000000000
H          H       0.40710   0.11173   0.59036   0.0000000000
H          H       0.90710   0.61173   0.59036   0.0000000000
H          H       0.59290   0.88827   0.59036   0.0000000000
H          H       0.09290   0.38827   0.59036   0.0000000000
H          H       0.59290   0.11173   0.90964   0.0000000000
H          H       0.09290   0.61173   0.90964   0.0000000000
H          H       0.40710   0.88827   0.90964   0.0000000000
H          H       0.90710   0.38827   0.90964   0.0000000000
C          C       0.62785   0.84743   0.83978   0.0000000000
C          C       0.12785   0.34743   0.83978   0.0000000000
C          C       0.37215   0.15257   0.83978   0.0000000000
C          C       0.87215   0.65257   0.83978   0.0000000000
C          C       0.37215   0.84743   0.66022   0.0000000000
C          C       0.87215   0.34743   0.66022   0.0000000000
C          C       0.62785   0.15257   0.66022   0.0000000000
C          C       0.12785   0.65257   0.66022   0.0000000000
C          C       0.37215   0.15257   0.66022   0.0000000000
C          C       0.87215   0.65257   0.66022   0.0000000000
C          C       0.62785   0.84743   0.66022   0.0000000000
C          C       0.12785   0.34743   0.66022   0.0000000000
C          C       0.62785   0.15257   0.83978   0.0000000000
C          C       0.12785   0.65257   0.83978   0.0000000000
C          C       0.37215   0.84743   0.83978   0.0000000000
C          C       0.87215   0.34743   0.83978   0.0000000000
H          H       0.63766   0.83583   0.90893   0.0000000000
H          H       0.13766   0.33583   0.90893   0.0000000000
H          H       0.36234   0.16417   0.90893   0.0000000000
H          H       0.86234   0.66417   0.90893   0.0000000000
H          H       0.36234   0.83583   0.59107   0.0000000000
H          H       0.86234   0.33583   0.59107   0.0000000000
H          H       0.63766   0.16417   0.59107   0.0000000000
H          H       0.13766   0.66417   0.59107   0.0000000000
H          H       0.36234   0.16417   0.59107   0.0000000000
H          H       0.86234   0.66417   0.59107   0.0000000000
H          H       0.63766   0.83583   0.59107   0.0000000000
H          H       0.13766   0.33583   0.59107   0.0000000000
H          H       0.63766   0.16417   0.90893   0.0000000000
H          H       0.13766   0.66417   0.90893   0.0000000000
H          H       0.36234   0.83583   0.90893   0.0000000000
H          H       0.86234   0.33583   0.90893   0.0000000000
C          C       0.64058   0.83277   0.75000   0.0000000000
C          C       0.14058   0.33277   0.75000   0.0000000000
C          C       0.35942   0.16723   0.75000   0.0000000000
C          C       0.85942   0.66723   0.75000   0.0000000000
C          C       0.35942   0.83277   0.75000   0.0000000000
C          C       0.85942   0.33277   0.75000   0.0000000000
C          C       0.64058   0.16723   0.75000   0.0000000000
C          C       0.14058   0.66723   0.75000   0.0000000000
H          H       0.73352   0.32172   0.75000   0.0000000000
H          H       0.81074   0.23008   0.75000   0.0000000000
H          H       0.70633   0.15742   0.75000   0.0000000000
H          H       0.23352   0.82172   0.75000   0.0000000000
H          H       0.31074   0.73008   0.75000   0.0000000000
H          H       0.20633   0.65742   0.75000   0.0000000000
H          H       0.26648   0.67828   0.75000   0.0000000000
H          H       0.18926   0.76992   0.75000   0.0000000000
H          H       0.29367   0.84258   0.75000   0.0000000000
H          H       0.76648   0.17828   0.75000   0.0000000000
H          H       0.68926   0.26992   0.75000   0.0000000000
H          H       0.79367   0.34258   0.75000   0.0000000000
H          H       0.26648   0.32172   0.75000   0.0000000000
H          H       0.18926   0.23008   0.75000   0.0000000000
H          H       0.29367   0.15742   0.75000   0.0000000000
H          H       0.76648   0.82172   0.75000   0.0000000000
H          H       0.68926   0.73008   0.75000   0.0000000000
H          H       0.79367   0.65742   0.75000   0.0000000000
H          H       0.73352   0.67828   0.75000   0.0000000000
H          H       0.81074   0.76992   0.75000   0.0000000000
H          H       0.70633   0.84258   0.75000   0.0000000000
H          H       0.23352   0.17828   0.75000   0.0000000000
H          H       0.31074   0.26992   0.75000   0.0000000000
H          H       0.20633   0.34258   0.75000   0.0000000000
H          H      -0.00000   0.46214   0.75000   0.0000000000
H          H       0.50000   0.96215   0.75000   0.0000000000
H          H       0.00000   0.53786   0.75000   0.0000000000
H          H       0.50000   0.03786   0.75000   0.0000000000
