data_crystal

_cell_length_a    38.53300
_cell_length_b    38.53300
_cell_length_c    6.73400
_cell_angle_alpha 90.00000
_cell_angle_beta  90.00000
_cell_angle_gamma 90.00000

_space_group_name_Hall 'P 1'
_space_group_name_H-M_alt  'P 1'

loop_
_symmetry_equiv_pos_as_xyz
'x,y,z' 

loop_
_atom_site_label
_atom_site_type_symbol
_atom_site_fract_x
_atom_site_fract_y
_atom_site_fract_z
Zn         Zn      0.50000   0.50000   0.25000 
N          N       0.44838   0.50000   0.25000 
B          B       0.27096   0.50000   0.25000 
C          C       0.22744   0.50000   0.25000 
C          C       0.15053   0.50000   0.25000 
C          C       0.11087   0.50000   0.25000 
C          C       0.07811   0.50000   0.25000 
C          C       0.03844   0.50000   0.25000 
N          N       0.55162   0.50000   0.25000 
B          B       0.72904   0.50000   0.25000 
C          C       0.77256   0.50000   0.25000 
C          C       0.84947   0.50000   0.25000 
C          C       0.88913   0.50000   0.25000 
C          C       0.92189   0.50000   0.25000 
C          C       0.96156   0.50000   0.25000 
N          N       0.50000   0.44838   0.25000 
B          B       0.50000   0.27096   0.25000 
C          C       0.50000   0.22744   0.25000 
C          C       0.50000   0.15053   0.25000 
C          C       0.50000   0.11087   0.25000 
C          C       0.50000   0.07811   0.25000 
C          C       0.50000   0.03844   0.25000 
N          N       0.50000   0.55162   0.25000 
B          B       0.50000   0.72904   0.25000 
C          C       0.50000   0.77256   0.25000 
C          C       0.50000   0.84947   0.25000 
C          C       0.50000   0.88913   0.25000 
C          C       0.50000   0.92189   0.25000 
C          C       0.50000   0.96156   0.25000 
N          N       0.43786   0.43786   0.25000 
N          N       0.56214   0.56214   0.25000 
N          N       0.56214   0.43786   0.25000 
N          N       0.43786   0.56214   0.25000 
O          O       0.29326   0.46819   0.25000 
C          C       0.42668   0.47167   0.25000 
C          C       0.39130   0.48201   0.25000 
C          C       0.35942   0.46288   0.25000 
C          C       0.32740   0.48197   0.25000 
C          C       0.20762   0.46885   0.25000 
C          C       0.17030   0.46885   0.25000 
C          C       0.01868   0.46885   0.25000 
H          H       0.35990   0.43467   0.25000 
H          H       0.22065   0.44384   0.25000 
H          H       0.15619   0.44442   0.25000 
H          H       0.03347   0.44323   0.25000 
O          O       0.70674   0.53181   0.25000 
C          C       0.57332   0.52833   0.25000 
C          C       0.60870   0.51799   0.25000 
C          C       0.64057   0.53712   0.25000 
C          C       0.67260   0.51803   0.25000 
C          C       0.79238   0.53115   0.25000 
C          C       0.82970   0.53115   0.25000 
C          C       0.98132   0.53115   0.25000 
H          H       0.64010   0.56533   0.25000 
H          H       0.77935   0.55616   0.25000 
H          H       0.84381   0.55558   0.25000 
H          H       0.96653   0.55677   0.25000 
O          O       0.53181   0.29326   0.25000 
C          C       0.52833   0.42668   0.25000 
C          C       0.51799   0.39130   0.25000 
C          C       0.53712   0.35942   0.25000 
C          C       0.51803   0.32740   0.25000 
C          C       0.53115   0.20762   0.25000 
C          C       0.53115   0.17030   0.25000 
C          C       0.53115   0.01868   0.25000 
H          H       0.56533   0.35990   0.25000 
H          H       0.55616   0.22065   0.25000 
H          H       0.55558   0.15619   0.25000 
H          H       0.55677   0.03347   0.25000 
O          O       0.46819   0.70674   0.25000 
C          C       0.47167   0.57332   0.25000 
C          C       0.48201   0.60870   0.25000 
C          C       0.46288   0.64057   0.25000 
C          C       0.48197   0.67260   0.25000 
C          C       0.46885   0.79238   0.25000 
C          C       0.46885   0.82970   0.25000 
C          C       0.46885   0.98132   0.25000 
H          H       0.43467   0.64010   0.25000 
H          H       0.44384   0.77935   0.25000 
H          H       0.44442   0.84381   0.25000 
H          H       0.44323   0.96653   0.25000 
O          O       0.70674   0.46819   0.25000 
C          C       0.57332   0.47167   0.25000 
C          C       0.60870   0.48201   0.25000 
C          C       0.64057   0.46288   0.25000 
C          C       0.67260   0.48197   0.25000 
C          C       0.79238   0.46885   0.25000 
C          C       0.82970   0.46885   0.25000 
C          C       0.98132   0.46885   0.25000 
H          H       0.64010   0.43467   0.25000 
H          H       0.77935   0.44384   0.25000 
H          H       0.84381   0.44442   0.25000 
H          H       0.96653   0.44323   0.25000 
O          O       0.29326   0.53181   0.25000 
C          C       0.42668   0.52833   0.25000 
C          C       0.39130   0.51799   0.25000 
C          C       0.35942   0.53712   0.25000 
C          C       0.32740   0.51803   0.25000 
C          C       0.20762   0.53115   0.25000 
C          C       0.17030   0.53115   0.25000 
C          C       0.01868   0.53115   0.25000 
H          H       0.35990   0.56533   0.25000 
H          H       0.22065   0.55616   0.25000 
H          H       0.15619   0.55558   0.25000 
H          H       0.03347   0.55677   0.25000 
O          O       0.46819   0.29326   0.25000 
C          C       0.47167   0.42668   0.25000 
C          C       0.48201   0.39130   0.25000 
C          C       0.46288   0.35942   0.25000 
C          C       0.48197   0.32740   0.25000 
C          C       0.46885   0.20762   0.25000 
C          C       0.46885   0.17030   0.25000 
C          C       0.46885   0.01868   0.25000 
H          H       0.43467   0.35990   0.25000 
H          H       0.44384   0.22065   0.25000 
H          H       0.44442   0.15619   0.25000 
H          H       0.44323   0.03347   0.25000 
O          O       0.53181   0.70674   0.25000 
C          C       0.52833   0.57332   0.25000 
C          C       0.51799   0.60870   0.25000 
C          C       0.53712   0.64057   0.25000 
C          C       0.51803   0.67260   0.25000 
C          C       0.53115   0.79238   0.25000 
C          C       0.53115   0.82970   0.25000 
C          C       0.53115   0.98132   0.25000 
H          H       0.56533   0.64010   0.25000 
H          H       0.55616   0.77935   0.25000 
H          H       0.55558   0.84381   0.25000 
H          H       0.55677   0.96653   0.25000 
Zn         Zn      0.50000   0.50000   0.75000 
N          N       0.44838   0.50000   0.75000 
B          B       0.27096   0.50000   0.75000 
C          C       0.22744   0.50000   0.75000 
C          C       0.15053   0.50000   0.75000 
C          C       0.11087   0.50000   0.75000 
C          C       0.07811   0.50000   0.75000 
C          C       0.03844   0.50000   0.75000 
N          N       0.55162   0.50000   0.75000 
B          B       0.72904   0.50000   0.75000 
C          C       0.77256   0.50000   0.75000 
C          C       0.84947   0.50000   0.75000 
C          C       0.88913   0.50000   0.75000 
C          C       0.92189   0.50000   0.75000 
C          C       0.96156   0.50000   0.75000 
N          N       0.50000   0.44838   0.75000 
B          B       0.50000   0.27096   0.75000 
C          C       0.50000   0.22744   0.75000 
C          C       0.50000   0.15053   0.75000 
C          C       0.50000   0.11087   0.75000 
C          C       0.50000   0.07811   0.75000 
C          C       0.50000   0.03844   0.75000 
N          N       0.50000   0.55162   0.75000 
B          B       0.50000   0.72904   0.75000 
C          C       0.50000   0.77256   0.75000 
C          C       0.50000   0.84947   0.75000 
C          C       0.50000   0.88913   0.75000 
C          C       0.50000   0.92189   0.75000 
C          C       0.50000   0.96156   0.75000 
N          N       0.43786   0.43786   0.75000 
N          N       0.56214   0.56214   0.75000 
N          N       0.56214   0.43786   0.75000 
N          N       0.43786   0.56214   0.75000 
O          O       0.29326   0.46819   0.75000 
C          C       0.42668   0.47167   0.75000 
C          C       0.39130   0.48201   0.75000 
C          C       0.35942   0.46288   0.75000 
C          C       0.32740   0.48197   0.75000 
C          C       0.20762   0.46885   0.75000 
C          C       0.17030   0.46885   0.75000 
C          C       0.01868   0.46885   0.75000 
H          H       0.35990   0.43467   0.75000 
H          H       0.22065   0.44384   0.75000 
H          H       0.15619   0.44442   0.75000 
H          H       0.03347   0.44323   0.75000 
O          O       0.70674   0.53181   0.75000 
C          C       0.57332   0.52833   0.75000 
C          C       0.60870   0.51799   0.75000 
C          C       0.64057   0.53712   0.75000 
C          C       0.67260   0.51803   0.75000 
C          C       0.79238   0.53115   0.75000 
C          C       0.82970   0.53115   0.75000 
C          C       0.98132   0.53115   0.75000 
H          H       0.64010   0.56533   0.75000 
H          H       0.77935   0.55616   0.75000 
H          H       0.84381   0.55558   0.75000 
H          H       0.96653   0.55677   0.75000 
O          O       0.53181   0.29326   0.75000 
C          C       0.52833   0.42668   0.75000 
C          C       0.51799   0.39130   0.75000 
C          C       0.53712   0.35942   0.75000 
C          C       0.51803   0.32740   0.75000 
C          C       0.53115   0.20762   0.75000 
C          C       0.53115   0.17030   0.75000 
C          C       0.53115   0.01868   0.75000 
H          H       0.56533   0.35990   0.75000 
H          H       0.55616   0.22065   0.75000 
H          H       0.55558   0.15619   0.75000 
H          H       0.55677   0.03347   0.75000 
O          O       0.46819   0.70674   0.75000 
C          C       0.47167   0.57332   0.75000 
C          C       0.48201   0.60870   0.75000 
C          C       0.46288   0.64057   0.75000 
C          C       0.48197   0.67260   0.75000 
C          C       0.46885   0.79238   0.75000 
C          C       0.46885   0.82970   0.75000 
C          C       0.46885   0.98132   0.75000 
H          H       0.43467   0.64010   0.75000 
H          H       0.44384   0.77935   0.75000 
H          H       0.44442   0.84381   0.75000 
H          H       0.44323   0.96653   0.75000 
O          O       0.70674   0.46819   0.75000 
C          C       0.57332   0.47167   0.75000 
C          C       0.60870   0.48201   0.75000 
C          C       0.64057   0.46288   0.75000 
C          C       0.67260   0.48197   0.75000 
C          C       0.79238   0.46885   0.75000 
C          C       0.82970   0.46885   0.75000 
C          C       0.98132   0.46885   0.75000 
H          H       0.64010   0.43467   0.75000 
H          H       0.77935   0.44384   0.75000 
H          H       0.84381   0.44442   0.75000 
H          H       0.96653   0.44323   0.75000 
O          O       0.29326   0.53181   0.75000 
C          C       0.42668   0.52833   0.75000 
C          C       0.39130   0.51799   0.75000 
C          C       0.35942   0.53712   0.75000 
C          C       0.32740   0.51803   0.75000 
C          C       0.20762   0.53115   0.75000 
C          C       0.17030   0.53115   0.75000 
C          C       0.01868   0.53115   0.75000 
H          H       0.35990   0.56533   0.75000 
H          H       0.22065   0.55616   0.75000 
H          H       0.15619   0.55558   0.75000 
H          H       0.03347   0.55677   0.75000 
O          O       0.46819   0.29326   0.75000 
C          C       0.47167   0.42668   0.75000 
C          C       0.48201   0.39130   0.75000 
C          C       0.46288   0.35942   0.75000 
C          C       0.48197   0.32740   0.75000 
C          C       0.46885   0.20762   0.75000 
C          C       0.46885   0.17030   0.75000 
C          C       0.46885   0.01868   0.75000 
H          H       0.43467   0.35990   0.75000 
H          H       0.44384   0.22065   0.75000 
H          H       0.44442   0.15619   0.75000 
H          H       0.44323   0.03347   0.75000 
O          O       0.53181   0.70674   0.75000 
C          C       0.52833   0.57332   0.75000 
C          C       0.51799   0.60870   0.75000 
C          C       0.53712   0.64057   0.75000 
C          C       0.51803   0.67260   0.75000 
C          C       0.53115   0.79238   0.75000 
C          C       0.53115   0.82970   0.75000 
C          C       0.53115   0.98132   0.75000 
H          H       0.56533   0.64010   0.75000 
H          H       0.55616   0.77935   0.75000 
H          H       0.55558   0.84381   0.75000 
H          H       0.55677   0.96653   0.75000 
