data_crystal
 
_cell_length_a    24.89100
_cell_length_b    27.18220
_cell_length_c    32.52840
_cell_angle_alpha 90.00000
_cell_angle_beta  90.00000
_cell_angle_gamma 90.00000
 
_symmetry_space_group_name_Hall 'P 1'
_symmetry_space_group_name_H-M  'P 1'
 
loop_
_symmetry_equiv_pos_as_xyz
 'x,y,z' 
 
loop_
_atom_site_label
_atom_site_type_symbol
_atom_site_fract_x
_atom_site_fract_y
_atom_site_fract_z
_atom_site_charge
H          H       0.00000   0.27031   0.59142   0.0000000000
H          H       0.00000   0.09815   0.63424   0.0000000000
H          H       0.00000   0.15841   0.68367   0.0000000000
H          H       0.00000   0.25047   0.70592   0.0000000000
H          H       0.00000   0.38564   0.62173   0.0000000000
H          H       0.00000   0.46506   0.64677   0.0000000000
H          H       0.00000   0.41050   0.77194   0.0000000000
H          H       0.00000   0.67348   0.74346   0.0000000000
C          C       0.00000   0.05365   0.46168   0.0000000000
C          C       0.00000   0.10682   0.46066   0.0000000000
C          C       0.00000   0.14435   0.42277   0.0000000000
C          C       0.00000   0.23195   0.39943   0.0000000000
C          C       0.00000   0.21928   0.35813   0.0000000000
C          C       0.00000   0.25892   0.32659   0.0000000000
N          N       0.00000   0.30399   0.33983   0.0000000000
C          C       0.00000   0.35070   0.31968   0.0000000000
C          C       0.00000   0.35772   0.27713   0.0000000000
C          C       0.00000   0.39133   0.34529   0.0000000000
C          C       0.00000   0.40595   0.26114   0.0000000000
C          C       0.00000   0.43888   0.32973   0.0000000000
C          C       0.00000   0.44836   0.28704   0.0000000000
C          C       0.00000   0.80338   0.43014   0.0000000000
C          C       0.00000   0.83053   0.34833   0.0000000000
C          C       0.00000   0.02524   0.57370   0.0000000000
H          H       0.00000   0.21504   0.54087   0.0000000000
C          C       0.00000   0.13314   0.37945   0.0000000000
H          H       0.00000   0.96060   0.60325   0.0000000000
H          H       0.00000   0.72969   0.59142   0.0000000000
H          H       0.00000   0.90185   0.63424   0.0000000000
H          H       0.00000   0.84159   0.68367   0.0000000000
H          H       0.00000   0.74953   0.70592   0.0000000000
H          H       0.00000   0.61436   0.62173   0.0000000000
H          H       0.00000   0.53494   0.64677   0.0000000000
H          H       0.00000   0.58950   0.77194   0.0000000000
H          H       0.00000   0.32652   0.74346   0.0000000000
C          C       0.00000   0.94635   0.46168   0.0000000000
C          C       0.00000   0.89318   0.46066   0.0000000000
C          C       0.00000   0.85565   0.42277   0.0000000000
C          C       0.00000   0.76805   0.39943   0.0000000000
C          C       0.00000   0.78072   0.35813   0.0000000000
C          C       0.00000   0.74108   0.32659   0.0000000000
N          N       0.00000   0.69601   0.33983   0.0000000000
C          C       0.00000   0.64930   0.31968   0.0000000000
C          C       0.00000   0.64228   0.27713   0.0000000000
C          C       0.00000   0.60867   0.34529   0.0000000000
C          C       0.00000   0.59405   0.26114   0.0000000000
C          C       0.00000   0.56112   0.32973   0.0000000000
C          C       0.00000   0.55164   0.28704   0.0000000000
C          C       0.00000   0.19662   0.43014   0.0000000000
C          C       0.00000   0.16947   0.34833   0.0000000000
C          C       0.00000   0.97476   0.57370   0.0000000000
H          H       0.00000   0.78496   0.54087   0.0000000000
C          C       0.00000   0.86686   0.37945   0.0000000000
H          H       0.00000   0.03940   0.60325   0.0000000000
H          H       0.00000   0.27031   0.40858   0.0000000000
H          H       0.00000   0.09815   0.36576   0.0000000000
H          H       0.00000   0.15841   0.31633   0.0000000000
H          H       0.00000   0.25047   0.29408   0.0000000000
H          H       0.00000   0.38564   0.37827   0.0000000000
H          H       0.00000   0.46506   0.35323   0.0000000000
H          H       0.00000   0.41050   0.22806   0.0000000000
H          H       0.00000   0.67348   0.25654   0.0000000000
C          C       0.00000   0.05365   0.53832   0.0000000000
C          C       0.00000   0.10682   0.53934   0.0000000000
C          C       0.00000   0.14435   0.57723   0.0000000000
C          C       0.00000   0.23195   0.60057   0.0000000000
C          C       0.00000   0.21928   0.64187   0.0000000000
C          C       0.00000   0.25892   0.67341   0.0000000000
N          N       0.00000   0.30399   0.66017   0.0000000000
C          C       0.00000   0.35070   0.68032   0.0000000000
C          C       0.00000   0.35772   0.72287   0.0000000000
C          C       0.00000   0.39133   0.65471   0.0000000000
C          C       0.00000   0.40595   0.73886   0.0000000000
C          C       0.00000   0.43888   0.67027   0.0000000000
C          C       0.00000   0.44836   0.71296   0.0000000000
C          C       0.00000   0.80338   0.56986   0.0000000000
C          C       0.00000   0.83053   0.65167   0.0000000000
C          C       0.00000   0.02524   0.42630   0.0000000000
H          H       0.00000   0.21504   0.45913   0.0000000000
C          C       0.00000   0.13314   0.62055   0.0000000000
H          H       0.00000   0.96060   0.39675   0.0000000000
H          H       0.00000   0.72969   0.40858   0.0000000000
H          H       0.00000   0.90185   0.36576   0.0000000000
H          H       0.00000   0.84159   0.31633   0.0000000000
H          H       0.00000   0.74953   0.29408   0.0000000000
H          H       0.00000   0.61436   0.37827   0.0000000000
H          H       0.00000   0.53494   0.35323   0.0000000000
H          H       0.00000   0.58950   0.22806   0.0000000000
H          H       0.00000   0.32652   0.25654   0.0000000000
C          C       0.00000   0.94635   0.53832   0.0000000000
C          C       0.00000   0.89318   0.53934   0.0000000000
C          C       0.00000   0.85565   0.57723   0.0000000000
C          C       0.00000   0.76805   0.60057   0.0000000000
C          C       0.00000   0.78072   0.64187   0.0000000000
C          C       0.00000   0.74108   0.67341   0.0000000000
N          N       0.00000   0.69601   0.66017   0.0000000000
C          C       0.00000   0.64930   0.68032   0.0000000000
C          C       0.00000   0.64228   0.72287   0.0000000000
C          C       0.00000   0.60867   0.65471   0.0000000000
C          C       0.00000   0.59405   0.73886   0.0000000000
C          C       0.00000   0.56112   0.67027   0.0000000000
C          C       0.00000   0.55164   0.71296   0.0000000000
C          C       0.00000   0.19662   0.56986   0.0000000000
C          C       0.00000   0.16947   0.65167   0.0000000000
C          C       0.00000   0.97476   0.42630   0.0000000000
H          H       0.00000   0.78496   0.45913   0.0000000000
C          C       0.00000   0.86686   0.62055   0.0000000000
H          H       0.00000   0.03940   0.39675   0.0000000000
H          H       0.74008   0.50000   0.12539   0.0000000000
H          H       0.55707   0.50000   0.18073   0.0000000000
H          H       0.62937   0.50000   0.22560   0.0000000000
H          H       0.73035   0.50000   0.24082   0.0000000000
H          H       0.87393   0.50000   0.15257   0.0000000000
H          H       0.96162   0.50000   0.17714   0.0000000000
H          H       0.90314   0.50000   0.30259   0.0000000000
H          H       0.18849   0.50000   0.27510   0.0000000000
C          C       0.54965   0.50000   0.95476   0.0000000000
C          C       0.59535   0.50000   0.97895   0.0000000000
C          C       0.60145   0.50000   0.87947   0.0000000000
C          C       0.69926   0.50000   0.86290   0.0000000000
C          C       0.69045   0.50000   0.82079   0.0000000000
C          C       0.73680   0.50000   0.79208   0.0000000000
N          N       0.78486   0.50000   0.80768   0.0000000000
C          C       0.83660   0.50000   0.78847   0.0000000000
C          C       0.84505   0.50000   0.74598   0.0000000000
C          C       0.88064   0.50000   0.81453   0.0000000000
C          C       0.89779   0.50000   0.73046   0.0000000000
C          C       0.93291   0.50000   0.79934   0.0000000000
C          C       0.94368   0.50000   0.75669   0.0000000000
C          C       0.34302   0.50000   0.89093   0.0000000000
C          C       0.36237   0.50000   0.80712   0.0000000000
C          C       0.55118   0.50000   0.09000   0.0000000000
H          H       0.63387   0.50000   0.96794   0.0000000000
H          H       0.67439   0.50000   0.07993   0.0000000000
C          C       0.40535   0.50000   0.83524   0.0000000000
H          H       0.25992   0.50000   0.12539   0.0000000000
H          H       0.44293   0.50000   0.18073   0.0000000000
H          H       0.37063   0.50000   0.22560   0.0000000000
H          H       0.26965   0.50000   0.24082   0.0000000000
H          H       0.12607   0.50000   0.15257   0.0000000000
H          H       0.03838   0.50000   0.17714   0.0000000000
H          H       0.09686   0.50000   0.30259   0.0000000000
H          H       0.81151   0.50000   0.27510   0.0000000000
C          C       0.45035   0.50000   0.95476   0.0000000000
C          C       0.40465   0.50000   0.97895   0.0000000000
C          C       0.39855   0.50000   0.87947   0.0000000000
C          C       0.30074   0.50000   0.86290   0.0000000000
C          C       0.30955   0.50000   0.82079   0.0000000000
C          C       0.26320   0.50000   0.79208   0.0000000000
N          N       0.21514   0.50000   0.80768   0.0000000000
C          C       0.16340   0.50000   0.78847   0.0000000000
C          C       0.15495   0.50000   0.74598   0.0000000000
C          C       0.11936   0.50000   0.81453   0.0000000000
C          C       0.10221   0.50000   0.73046   0.0000000000
C          C       0.06709   0.50000   0.79934   0.0000000000
C          C       0.05632   0.50000   0.75669   0.0000000000
C          C       0.65698   0.50000   0.89093   0.0000000000
C          C       0.63763   0.50000   0.80712   0.0000000000
C          C       0.44882   0.50000   0.09000   0.0000000000
H          H       0.36613   0.50000   0.96794   0.0000000000
H          H       0.32561   0.50000   0.07993   0.0000000000
C          C       0.59465   0.50000   0.83524   0.0000000000
H          H       0.25992   0.50000   0.87461   0.0000000000
H          H       0.44293   0.50000   0.81927   0.0000000000
H          H       0.37063   0.50000   0.77440   0.0000000000
H          H       0.26965   0.50000   0.75918   0.0000000000
H          H       0.12607   0.50000   0.84743   0.0000000000
H          H       0.03838   0.50000   0.82286   0.0000000000
H          H       0.09686   0.50000   0.69741   0.0000000000
H          H       0.81151   0.50000   0.72490   0.0000000000
C          C       0.45035   0.50000   0.04524   0.0000000000
C          C       0.40465   0.50000   0.02105   0.0000000000
C          C       0.39855   0.50000   0.12053   0.0000000000
C          C       0.30074   0.50000   0.13710   0.0000000000
C          C       0.30955   0.50000   0.17921   0.0000000000
C          C       0.26320   0.50000   0.20792   0.0000000000
N          N       0.21514   0.50000   0.19232   0.0000000000
C          C       0.16340   0.50000   0.21153   0.0000000000
C          C       0.15495   0.50000   0.25402   0.0000000000
C          C       0.11936   0.50000   0.18547   0.0000000000
C          C       0.10221   0.50000   0.26954   0.0000000000
C          C       0.06709   0.50000   0.20066   0.0000000000
C          C       0.05632   0.50000   0.24331   0.0000000000
C          C       0.65698   0.50000   0.10907   0.0000000000
C          C       0.63763   0.50000   0.19288   0.0000000000
C          C       0.44882   0.50000   0.91000   0.0000000000
H          H       0.36613   0.50000   0.03206   0.0000000000
H          H       0.32561   0.50000   0.92007   0.0000000000
C          C       0.59465   0.50000   0.16476   0.0000000000
H          H       0.74008   0.50000   0.87461   0.0000000000
H          H       0.55707   0.50000   0.81927   0.0000000000
H          H       0.62937   0.50000   0.77440   0.0000000000
H          H       0.73035   0.50000   0.75918   0.0000000000
H          H       0.87393   0.50000   0.84743   0.0000000000
H          H       0.96162   0.50000   0.82286   0.0000000000
H          H       0.90314   0.50000   0.69741   0.0000000000
H          H       0.18849   0.50000   0.72490   0.0000000000
C          C       0.54965   0.50000   0.04524   0.0000000000
C          C       0.59535   0.50000   0.02105   0.0000000000
C          C       0.60145   0.50000   0.12053   0.0000000000
C          C       0.69926   0.50000   0.13710   0.0000000000
C          C       0.69045   0.50000   0.17921   0.0000000000
C          C       0.73680   0.50000   0.20792   0.0000000000
N          N       0.78486   0.50000   0.19232   0.0000000000
C          C       0.83660   0.50000   0.21153   0.0000000000
C          C       0.84505   0.50000   0.25402   0.0000000000
C          C       0.88064   0.50000   0.18547   0.0000000000
C          C       0.89779   0.50000   0.26954   0.0000000000
C          C       0.93291   0.50000   0.20066   0.0000000000
C          C       0.94368   0.50000   0.24331   0.0000000000
C          C       0.34302   0.50000   0.10907   0.0000000000
C          C       0.36237   0.50000   0.19288   0.0000000000
C          C       0.55118   0.50000   0.91000   0.0000000000
H          H       0.63387   0.50000   0.03206   0.0000000000
H          H       0.67439   0.50000   0.92007   0.0000000000
C          C       0.40535   0.50000   0.16476   0.0000000000
C          C       0.00000   0.50000   0.73489   0.0000000000
C          C       0.00000   0.50000   0.26511   0.0000000000
C          C       0.50000   0.50000   0.02281   0.0000000000
C          C       0.50000   0.50000   0.89126   0.0000000000
H          H       0.50000   0.50000   0.85989   0.0000000000
C          C       0.50000   0.50000   0.97719   0.0000000000
C          C       0.50000   0.50000   0.10874   0.0000000000
H          H       0.50000   0.50000   0.14011   0.0000000000
C          C       0.00000   0.97299   0.50000   0.0000000000
C          C       0.00000   0.87157   0.50000   0.0000000000
H          H       0.00000   0.83494   0.50000   0.0000000000
C          C       0.00000   0.02701   0.50000   0.0000000000
C          C       0.00000   0.12843   0.50000   0.0000000000
H          H       0.00000   0.16506   0.50000   0.0000000000
