data_crystal

_cell_length_a    26.98000
_cell_length_b    26.98000
_cell_length_c    6.67600
_cell_angle_alpha 90.00000
_cell_angle_beta  90.00000
_cell_angle_gamma 90.00000

_space_group_name_Hall 'P 1'
_space_group_name_H-M_alt  'P 1'

loop_
_symmetry_equiv_pos_as_xyz
'x,y,z' 

loop_
_atom_site_label
_atom_site_type_symbol
_atom_site_fract_x
_atom_site_fract_y
_atom_site_fract_z
C          C       0.02746   0.41086   0.25000 
C          C       0.05371   0.45543   0.25000 
C          C       0.10567   0.45543   0.25000 
C          C       0.26500   0.47500   0.25000 
C          C       0.30900   0.45000   0.25000 
C          C       0.35500   0.47500   0.25000 
C          C       0.40100   0.46200   0.25000 
O          O       0.21203   0.54659   0.25000 
H          H       0.04731   0.37580   0.25000 
H          H       0.12582   0.42054   0.25000 
H          H       0.30928   0.40971   0.25000 
C          C       0.97254   0.58914   0.25000 
C          C       0.94629   0.54457   0.25000 
C          C       0.89433   0.54457   0.25000 
C          C       0.73500   0.52500   0.25000 
C          C       0.69100   0.55000   0.25000 
C          C       0.64500   0.52500   0.25000 
C          C       0.59900   0.53800   0.25000 
O          O       0.78798   0.45341   0.25000 
H          H       0.95269   0.62420   0.25000 
H          H       0.87418   0.57946   0.25000 
H          H       0.69072   0.59029   0.25000 
C          C       0.58914   0.02746   0.25000 
C          C       0.54457   0.05371   0.25000 
C          C       0.54457   0.10567   0.25000 
C          C       0.52500   0.26500   0.25000 
C          C       0.55000   0.30900   0.25000 
C          C       0.52500   0.35500   0.25000 
C          C       0.53800   0.40100   0.25000 
O          O       0.45341   0.21203   0.25000 
H          H       0.62420   0.04731   0.25000 
H          H       0.57946   0.12582   0.25000 
H          H       0.59029   0.30928   0.25000 
C          C       0.41086   0.97254   0.25000 
C          C       0.45543   0.94629   0.25000 
C          C       0.45543   0.89433   0.25000 
C          C       0.47500   0.73500   0.25000 
C          C       0.45000   0.69100   0.25000 
C          C       0.47500   0.64500   0.25000 
C          C       0.46200   0.59900   0.25000 
O          O       0.54659   0.78798   0.25000 
H          H       0.37580   0.95269   0.25000 
H          H       0.42054   0.87418   0.25000 
H          H       0.40971   0.69072   0.25000 
C          C       0.97254   0.41086   0.25000 
C          C       0.94629   0.45543   0.25000 
C          C       0.89433   0.45543   0.25000 
C          C       0.73500   0.47500   0.25000 
C          C       0.69100   0.45000   0.25000 
C          C       0.64500   0.47500   0.25000 
C          C       0.59900   0.46200   0.25000 
O          O       0.78798   0.54659   0.25000 
H          H       0.95269   0.37580   0.25000 
H          H       0.87418   0.42054   0.25000 
H          H       0.69072   0.40971   0.25000 
C          C       0.02746   0.58914   0.25000 
C          C       0.05371   0.54457   0.25000 
C          C       0.10567   0.54457   0.25000 
C          C       0.26500   0.52500   0.25000 
C          C       0.30900   0.55000   0.25000 
C          C       0.35500   0.52500   0.25000 
C          C       0.40100   0.53800   0.25000 
O          O       0.21203   0.45341   0.25000 
H          H       0.04731   0.62420   0.25000 
H          H       0.12582   0.57946   0.25000 
H          H       0.30928   0.59029   0.25000 
C          C       0.41086   0.02746   0.25000 
C          C       0.45543   0.05371   0.25000 
C          C       0.45543   0.10567   0.25000 
C          C       0.47500   0.26500   0.25000 
C          C       0.45000   0.30900   0.25000 
C          C       0.47500   0.35500   0.25000 
C          C       0.46200   0.40100   0.25000 
O          O       0.54659   0.21203   0.25000 
H          H       0.37580   0.04731   0.25000 
H          H       0.42054   0.12582   0.25000 
H          H       0.40971   0.30928   0.25000 
C          C       0.58914   0.97254   0.25000 
C          C       0.54457   0.94629   0.25000 
C          C       0.54457   0.89433   0.25000 
C          C       0.52500   0.73500   0.25000 
C          C       0.55000   0.69100   0.25000 
C          C       0.52500   0.64500   0.25000 
C          C       0.53800   0.59900   0.25000 
O          O       0.45341   0.78798   0.25000 
H          H       0.62420   0.95269   0.25000 
H          H       0.57946   0.87418   0.25000 
H          H       0.59029   0.69072   0.25000 
C          C       0.02746   0.50000   0.25000 
C          C       0.13129   0.50000   0.25000 
B          B       0.18282   0.50000   0.25000 
N          N       0.43000   0.50000   0.25000 
C          C       0.97254   0.50000   0.25000 
C          C       0.86871   0.50000   0.25000 
B          B       0.81718   0.50000   0.25000 
N          N       0.57000   0.50000   0.25000 
C          C       0.50000   0.02746   0.25000 
C          C       0.50000   0.13129   0.25000 
B          B       0.50000   0.18282   0.25000 
N          N       0.50000   0.43000   0.25000 
C          C       0.50000   0.97254   0.25000 
C          C       0.50000   0.86871   0.25000 
B          B       0.50000   0.81718   0.25000 
N          N       0.50000   0.57000   0.25000 
N          N       0.41600   0.58400   0.25000 
N          N       0.58400   0.41600   0.25000 
N          N       0.41600   0.41600   0.25000 
N          N       0.58400   0.58400   0.25000 
Zn         Zn      0.50000   0.50000   0.25000 
C          C       0.02746   0.41086   0.75000 
C          C       0.05371   0.45543   0.75000 
C          C       0.10567   0.45543   0.75000 
C          C       0.26500   0.47500   0.75000 
C          C       0.30900   0.45000   0.75000 
C          C       0.35500   0.47500   0.75000 
C          C       0.40100   0.46200   0.75000 
O          O       0.21203   0.54659   0.75000 
H          H       0.04731   0.37580   0.75000 
H          H       0.12582   0.42054   0.75000 
H          H       0.30928   0.40971   0.75000 
C          C       0.97254   0.58914   0.75000 
C          C       0.94629   0.54457   0.75000 
C          C       0.89433   0.54457   0.75000 
C          C       0.73500   0.52500   0.75000 
C          C       0.69100   0.55000   0.75000 
C          C       0.64500   0.52500   0.75000 
C          C       0.59900   0.53800   0.75000 
O          O       0.78798   0.45341   0.75000 
H          H       0.95269   0.62420   0.75000 
H          H       0.87418   0.57946   0.75000 
H          H       0.69072   0.59029   0.75000 
C          C       0.58914   0.02746   0.75000 
C          C       0.54457   0.05371   0.75000 
C          C       0.54457   0.10567   0.75000 
C          C       0.52500   0.26500   0.75000 
C          C       0.55000   0.30900   0.75000 
C          C       0.52500   0.35500   0.75000 
C          C       0.53800   0.40100   0.75000 
O          O       0.45341   0.21203   0.75000 
H          H       0.62420   0.04731   0.75000 
H          H       0.57946   0.12582   0.75000 
H          H       0.59029   0.30928   0.75000 
C          C       0.41086   0.97254   0.75000 
C          C       0.45543   0.94629   0.75000 
C          C       0.45543   0.89433   0.75000 
C          C       0.47500   0.73500   0.75000 
C          C       0.45000   0.69100   0.75000 
C          C       0.47500   0.64500   0.75000 
C          C       0.46200   0.59900   0.75000 
O          O       0.54659   0.78798   0.75000 
H          H       0.37580   0.95269   0.75000 
H          H       0.42054   0.87418   0.75000 
H          H       0.40971   0.69072   0.75000 
C          C       0.97254   0.41086   0.75000 
C          C       0.94629   0.45543   0.75000 
C          C       0.89433   0.45543   0.75000 
C          C       0.73500   0.47500   0.75000 
C          C       0.69100   0.45000   0.75000 
C          C       0.64500   0.47500   0.75000 
C          C       0.59900   0.46200   0.75000 
O          O       0.78798   0.54659   0.75000 
H          H       0.95269   0.37580   0.75000 
H          H       0.87418   0.42054   0.75000 
H          H       0.69072   0.40971   0.75000 
C          C       0.02746   0.58914   0.75000 
C          C       0.05371   0.54457   0.75000 
C          C       0.10567   0.54457   0.75000 
C          C       0.26500   0.52500   0.75000 
C          C       0.30900   0.55000   0.75000 
C          C       0.35500   0.52500   0.75000 
C          C       0.40100   0.53800   0.75000 
O          O       0.21203   0.45341   0.75000 
H          H       0.04731   0.62420   0.75000 
H          H       0.12582   0.57946   0.75000 
H          H       0.30928   0.59029   0.75000 
C          C       0.41086   0.02746   0.75000 
C          C       0.45543   0.05371   0.75000 
C          C       0.45543   0.10567   0.75000 
C          C       0.47500   0.26500   0.75000 
C          C       0.45000   0.30900   0.75000 
C          C       0.47500   0.35500   0.75000 
C          C       0.46200   0.40100   0.75000 
O          O       0.54659   0.21203   0.75000 
H          H       0.37580   0.04731   0.75000 
H          H       0.42054   0.12582   0.75000 
H          H       0.40971   0.30928   0.75000 
C          C       0.58914   0.97254   0.75000 
C          C       0.54457   0.94629   0.75000 
C          C       0.54457   0.89433   0.75000 
C          C       0.52500   0.73500   0.75000 
C          C       0.55000   0.69100   0.75000 
C          C       0.52500   0.64500   0.75000 
C          C       0.53800   0.59900   0.75000 
O          O       0.45341   0.78798   0.75000 
H          H       0.62420   0.95269   0.75000 
H          H       0.57946   0.87418   0.75000 
H          H       0.59029   0.69072   0.75000 
C          C       0.02746   0.50000   0.75000 
C          C       0.13129   0.50000   0.75000 
B          B       0.18282   0.50000   0.75000 
N          N       0.43000   0.50000   0.75000 
C          C       0.97254   0.50000   0.75000 
C          C       0.86871   0.50000   0.75000 
B          B       0.81718   0.50000   0.75000 
N          N       0.57000   0.50000   0.75000 
C          C       0.50000   0.02746   0.75000 
C          C       0.50000   0.13129   0.75000 
B          B       0.50000   0.18282   0.75000 
N          N       0.50000   0.43000   0.75000 
C          C       0.50000   0.97254   0.75000 
C          C       0.50000   0.86871   0.75000 
B          B       0.50000   0.81718   0.75000 
N          N       0.50000   0.57000   0.75000 
N          N       0.41600   0.58400   0.75000 
N          N       0.58400   0.41600   0.75000 
N          N       0.41600   0.41600   0.75000 
N          N       0.58400   0.58400   0.75000 
Zn         Zn      0.50000   0.50000   0.75000 
