data_crystal

_cell_length_a    32.18300
_cell_length_b    32.18300
_cell_length_c    6.71200
_cell_angle_alpha 90.00000
_cell_angle_beta  90.00000
_cell_angle_gamma 90.00000

_space_group_name_Hall 'P 1'
_space_group_name_H-M_alt  'P 1'

loop_
_symmetry_equiv_pos_as_xyz
'x,y,z' 

loop_
_atom_site_label
_atom_site_type_symbol
_atom_site_fract_x
_atom_site_fract_y
_atom_site_fract_z
Zn         Zn      0.50000   0.50000   0.25000 
C          C       0.02049   0.50000   0.25000 
C          C       0.05770   0.50000   0.25000 
C          C       0.10207   0.50000   0.25000 
C          C       0.18853   0.50000   0.25000 
B          B       0.23665   0.50000   0.25000 
N          N       0.44032   0.50000   0.25000 
C          C       0.97951   0.50000   0.25000 
C          C       0.94230   0.50000   0.25000 
C          C       0.89792   0.50000   0.25000 
C          C       0.81147   0.50000   0.25000 
B          B       0.76335   0.50000   0.25000 
N          N       0.55968   0.50000   0.25000 
C          C       0.50000   0.02049   0.25000 
C          C       0.50000   0.05770   0.25000 
C          C       0.50000   0.10207   0.25000 
C          C       0.50000   0.18853   0.25000 
B          B       0.50000   0.23665   0.25000 
N          N       0.50000   0.44032   0.25000 
C          C       0.50000   0.97951   0.25000 
C          C       0.50000   0.94230   0.25000 
C          C       0.50000   0.89792   0.25000 
C          C       0.50000   0.81147   0.25000 
B          B       0.50000   0.76335   0.25000 
N          N       0.50000   0.55968   0.25000 
C          C       0.12375   0.46474   0.25000 
C          C       0.16681   0.46474   0.25000 
C          C       0.30064   0.48055   0.25000 
C          C       0.33741   0.45786   0.25000 
C          C       0.37382   0.48055   0.25000 
C          C       0.41448   0.46904   0.25000 
O          O       0.26132   0.46414   0.25000 
H          H       0.66363   0.42245   0.25000 
H          H       0.89311   0.56641   0.25000 
H          H       0.81548   0.56594   0.25000 
C          C       0.87625   0.53526   0.25000 
C          C       0.83319   0.53526   0.25000 
C          C       0.69936   0.51945   0.25000 
C          C       0.66259   0.54214   0.25000 
C          C       0.62618   0.51945   0.25000 
C          C       0.58552   0.53096   0.25000 
O          O       0.73869   0.53586   0.25000 
H          H       0.33637   0.57755   0.25000 
H          H       0.10689   0.43359   0.25000 
H          H       0.18452   0.43406   0.25000 
C          C       0.53526   0.12375   0.25000 
C          C       0.53526   0.16681   0.25000 
C          C       0.51945   0.30064   0.25000 
C          C       0.54214   0.33741   0.25000 
C          C       0.51945   0.37382   0.25000 
C          C       0.53096   0.41448   0.25000 
O          O       0.53586   0.26132   0.25000 
H          H       0.57755   0.66363   0.25000 
H          H       0.43359   0.89311   0.25000 
H          H       0.43406   0.81548   0.25000 
C          C       0.46474   0.87625   0.25000 
C          C       0.46474   0.83319   0.25000 
C          C       0.48055   0.69936   0.25000 
C          C       0.45786   0.66259   0.25000 
C          C       0.48055   0.62618   0.25000 
C          C       0.46904   0.58552   0.25000 
O          O       0.46414   0.73869   0.25000 
H          H       0.42245   0.33637   0.25000 
H          H       0.56641   0.10689   0.25000 
H          H       0.56594   0.18452   0.25000 
C          C       0.87625   0.46474   0.25000 
C          C       0.83319   0.46474   0.25000 
C          C       0.69936   0.48055   0.25000 
C          C       0.66259   0.45786   0.25000 
C          C       0.62618   0.48055   0.25000 
C          C       0.58552   0.46904   0.25000 
O          O       0.73869   0.46414   0.25000 
H          H       0.33637   0.42245   0.25000 
H          H       0.10689   0.56641   0.25000 
H          H       0.18452   0.56594   0.25000 
C          C       0.12375   0.53526   0.25000 
C          C       0.16681   0.53526   0.25000 
C          C       0.30064   0.51945   0.25000 
C          C       0.33741   0.54214   0.25000 
C          C       0.37382   0.51945   0.25000 
C          C       0.41448   0.53096   0.25000 
O          O       0.26132   0.53586   0.25000 
H          H       0.66363   0.57755   0.25000 
H          H       0.89311   0.43359   0.25000 
H          H       0.81548   0.43406   0.25000 
C          C       0.46474   0.12375   0.25000 
C          C       0.46474   0.16681   0.25000 
C          C       0.48055   0.30064   0.25000 
C          C       0.45786   0.33741   0.25000 
C          C       0.48055   0.37382   0.25000 
C          C       0.46904   0.41448   0.25000 
O          O       0.46414   0.26132   0.25000 
H          H       0.42245   0.66363   0.25000 
H          H       0.56641   0.89311   0.25000 
H          H       0.56594   0.81548   0.25000 
C          C       0.53526   0.87625   0.25000 
C          C       0.53526   0.83319   0.25000 
C          C       0.51945   0.69936   0.25000 
C          C       0.54214   0.66259   0.25000 
C          C       0.51945   0.62618   0.25000 
C          C       0.53096   0.58552   0.25000 
O          O       0.53586   0.73869   0.25000 
H          H       0.57755   0.33637   0.25000 
H          H       0.43359   0.10689   0.25000 
H          H       0.43406   0.18452   0.25000 
N          N       0.42805   0.42805   0.25000 
N          N       0.57195   0.57195   0.25000 
N          N       0.57195   0.42805   0.25000 
N          N       0.42805   0.57195   0.25000 
Zn         Zn      0.50000   0.50000   0.75000 
C          C       0.02049   0.50000   0.75000 
C          C       0.05770   0.50000   0.75000 
C          C       0.10207   0.50000   0.75000 
C          C       0.18853   0.50000   0.75000 
B          B       0.23665   0.50000   0.75000 
N          N       0.44032   0.50000   0.75000 
C          C       0.97951   0.50000   0.75000 
C          C       0.94230   0.50000   0.75000 
C          C       0.89792   0.50000   0.75000 
C          C       0.81147   0.50000   0.75000 
B          B       0.76335   0.50000   0.75000 
N          N       0.55968   0.50000   0.75000 
C          C       0.50000   0.02049   0.75000 
C          C       0.50000   0.05770   0.75000 
C          C       0.50000   0.10207   0.75000 
C          C       0.50000   0.18853   0.75000 
B          B       0.50000   0.23665   0.75000 
N          N       0.50000   0.44032   0.75000 
C          C       0.50000   0.97951   0.75000 
C          C       0.50000   0.94230   0.75000 
C          C       0.50000   0.89792   0.75000 
C          C       0.50000   0.81147   0.75000 
B          B       0.50000   0.76335   0.75000 
N          N       0.50000   0.55968   0.75000 
C          C       0.12375   0.46474   0.75000 
C          C       0.16681   0.46474   0.75000 
C          C       0.30064   0.48055   0.75000 
C          C       0.33741   0.45786   0.75000 
C          C       0.37382   0.48055   0.75000 
C          C       0.41448   0.46904   0.75000 
O          O       0.26132   0.46414   0.75000 
H          H       0.66363   0.42245   0.75000 
H          H       0.89311   0.56641   0.75000 
H          H       0.81548   0.56594   0.75000 
C          C       0.87625   0.53526   0.75000 
C          C       0.83319   0.53526   0.75000 
C          C       0.69936   0.51945   0.75000 
C          C       0.66259   0.54214   0.75000 
C          C       0.62618   0.51945   0.75000 
C          C       0.58552   0.53096   0.75000 
O          O       0.73869   0.53586   0.75000 
H          H       0.33637   0.57755   0.75000 
H          H       0.10689   0.43359   0.75000 
H          H       0.18452   0.43406   0.75000 
C          C       0.53526   0.12375   0.75000 
C          C       0.53526   0.16681   0.75000 
C          C       0.51945   0.30064   0.75000 
C          C       0.54214   0.33741   0.75000 
C          C       0.51945   0.37382   0.75000 
C          C       0.53096   0.41448   0.75000 
O          O       0.53586   0.26132   0.75000 
H          H       0.57755   0.66363   0.75000 
H          H       0.43359   0.89311   0.75000 
H          H       0.43406   0.81548   0.75000 
C          C       0.46474   0.87625   0.75000 
C          C       0.46474   0.83319   0.75000 
C          C       0.48055   0.69936   0.75000 
C          C       0.45786   0.66259   0.75000 
C          C       0.48055   0.62618   0.75000 
C          C       0.46904   0.58552   0.75000 
O          O       0.46414   0.73869   0.75000 
H          H       0.42245   0.33637   0.75000 
H          H       0.56641   0.10689   0.75000 
H          H       0.56594   0.18452   0.75000 
C          C       0.87625   0.46474   0.75000 
C          C       0.83319   0.46474   0.75000 
C          C       0.69936   0.48055   0.75000 
C          C       0.66259   0.45786   0.75000 
C          C       0.62618   0.48055   0.75000 
C          C       0.58552   0.46904   0.75000 
O          O       0.73869   0.46414   0.75000 
H          H       0.33637   0.42245   0.75000 
H          H       0.10689   0.56641   0.75000 
H          H       0.18452   0.56594   0.75000 
C          C       0.12375   0.53526   0.75000 
C          C       0.16681   0.53526   0.75000 
C          C       0.30064   0.51945   0.75000 
C          C       0.33741   0.54214   0.75000 
C          C       0.37382   0.51945   0.75000 
C          C       0.41448   0.53096   0.75000 
O          O       0.26132   0.53586   0.75000 
H          H       0.66363   0.57755   0.75000 
H          H       0.89311   0.43359   0.75000 
H          H       0.81548   0.43406   0.75000 
C          C       0.46474   0.12375   0.75000 
C          C       0.46474   0.16681   0.75000 
C          C       0.48055   0.30064   0.75000 
C          C       0.45786   0.33741   0.75000 
C          C       0.48055   0.37382   0.75000 
C          C       0.46904   0.41448   0.75000 
O          O       0.46414   0.26132   0.75000 
H          H       0.42245   0.66363   0.75000 
H          H       0.56641   0.89311   0.75000 
H          H       0.56594   0.81548   0.75000 
C          C       0.53526   0.87625   0.75000 
C          C       0.53526   0.83319   0.75000 
C          C       0.51945   0.69936   0.75000 
C          C       0.54214   0.66259   0.75000 
C          C       0.51945   0.62618   0.75000 
C          C       0.53096   0.58552   0.75000 
O          O       0.53586   0.73869   0.75000 
H          H       0.57755   0.33637   0.75000 
H          H       0.43359   0.10689   0.75000 
H          H       0.43406   0.18452   0.75000 
N          N       0.42805   0.42805   0.75000 
N          N       0.57195   0.57195   0.75000 
N          N       0.57195   0.42805   0.75000 
N          N       0.42805   0.57195   0.75000 
