data_crystal

_cell_length_a    30.14730
_cell_length_b    30.14730
_cell_length_c    7.11160
_cell_angle_alpha 90.00000
_cell_angle_beta  90.00000
_cell_angle_gamma 120.00000

_space_group_name_Hall 'P 1'
_space_group_name_H-M_alt  'P 1'

loop_
_symmetry_equiv_pos_as_xyz
'x,y,z' 

loop_
_atom_site_label
_atom_site_type_symbol
_atom_site_fract_x
_atom_site_fract_y
_atom_site_fract_z
C          C       0.71382   0.33243   0.25000 
C          C       0.71461   0.38062   0.25000 
C          C       0.76324   0.42687   0.25000 
C          C       0.80876   0.42558   0.25000 
C          C       0.80796   0.37935   0.25000 
C          C       0.76170   0.33327   0.25000 
C          C       0.66757   0.38138   0.25000 
C          C       0.61938   0.33399   0.25000 
C          C       0.57313   0.33637   0.25000 
C          C       0.57442   0.38318   0.25000 
C          C       0.62065   0.42861   0.25000 
C          C       0.66673   0.42843   0.25000 
C          C       0.61862   0.28618   0.25000 
C          C       0.66601   0.28539   0.25000 
C          C       0.66363   0.23676   0.25000 
C          C       0.61682   0.19124   0.25000 
C          C       0.57139   0.19204   0.25000 
C          C       0.57157   0.23830   0.25000 
C          C       0.33243   0.71382   0.25000 
C          C       0.38062   0.71461   0.25000 
C          C       0.42687   0.76324   0.25000 
C          C       0.42558   0.80876   0.25000 
C          C       0.37935   0.80796   0.25000 
C          C       0.33327   0.76170   0.25000 
C          C       0.38138   0.66757   0.25000 
C          C       0.33399   0.61938   0.25000 
C          C       0.33637   0.57313   0.25000 
C          C       0.38318   0.57442   0.25000 
C          C       0.42861   0.62065   0.25000 
C          C       0.42843   0.66673   0.25000 
C          C       0.28618   0.61862   0.25000 
C          C       0.28539   0.66601   0.25000 
C          C       0.23676   0.66363   0.25000 
C          C       0.19124   0.61682   0.25000 
C          C       0.19204   0.57139   0.25000 
C          C       0.23830   0.57157   0.25000 
O          O       0.85574   0.38655   0.25000 
O          O       0.61345   0.46919   0.25000 
O          O       0.53081   0.14426   0.25000 
O          O       0.38655   0.85574   0.25000 
O          O       0.46919   0.61345   0.25000 
O          O       0.14426   0.53081   0.25000 
B          B       0.88831   0.44141   0.25000 
B          B       0.55859   0.44690   0.25000 
B          B       0.55310   0.11169   0.25000 
B          B       0.44141   0.88831   0.25000 
B          B       0.44690   0.55859   0.25000 
B          B       0.11169   0.55310   0.25000 
O          O       0.85713   0.46531   0.25000 
O          O       0.53469   0.39182   0.25000 
O          O       0.60818   0.14287   0.25000 
O          O       0.46531   0.85713   0.25000 
O          O       0.39182   0.53469   0.25000 
O          O       0.14287   0.60818   0.25000 
H          H       0.76796   0.46261   0.25000 
H          H       0.53739   0.30534   0.25000 
H          H       0.69466   0.23204   0.25000 
H          H       0.76538   0.30161   0.25000 
H          H       0.69839   0.46377   0.25000 
H          H       0.53624   0.23462   0.25000 
H          H       0.46261   0.76796   0.25000 
H          H       0.30534   0.53739   0.25000 
H          H       0.23204   0.69466   0.25000 
H          H       0.30161   0.76538   0.25000 
H          H       0.46377   0.69839   0.25000 
H          H       0.23462   0.53624   0.25000 
C          C       0.05470   0.52469   0.25000 
C          C       0.47531   0.53001   0.25000 
C          C       0.46999   0.94530   0.25000 
C          C       0.52469   0.05470   0.25000 
C          C       0.53001   0.47531   0.25000 
C          C       0.94530   0.46999   0.25000 
C          C       0.02674   0.47069   0.25000 
C          C       0.52931   0.55605   0.25000 
C          C       0.44395   0.97326   0.25000 
C          C       0.47069   0.02674   0.25000 
C          C       0.55605   0.52931   0.25000 
C          C       0.97326   0.44395   0.25000 
C          C       0.97300   0.52423   0.25000 
C          C       0.47577   0.44877   0.25000 
C          C       0.55123   0.02700   0.25000 
C          C       0.52423   0.97300   0.25000 
C          C       0.44877   0.47577   0.25000 
C          C       0.02700   0.55123   0.25000 
N          N       0.56120   0.60679   0.25000 
N          N       0.39321   0.95442   0.25000 
N          N       0.04558   0.43880   0.25000 
N          N       0.60679   0.56120   0.25000 
N          N       0.95442   0.39321   0.25000 
N          N       0.43880   0.04558   0.25000 
S          S       0.62356   0.62356   0.25000 
S          S       0.37644   0.00000   0.25000 
S          S      -0.00000   0.37644   0.25000 
H          H       0.04618   0.59061   0.25000 
H          H       0.40939   0.45557   0.25000 
H          H       0.54443   0.95382   0.25000 
H          H       0.59061   0.04618   0.25000 
H          H       0.45557   0.40939   0.25000 
H          H       0.95382   0.54443   0.25000 
C          C       0.71382   0.33243   0.75000 
C          C       0.71461   0.38062   0.75000 
C          C       0.76324   0.42687   0.75000 
C          C       0.80876   0.42558   0.75000 
C          C       0.80796   0.37935   0.75000 
C          C       0.76170   0.33327   0.75000 
C          C       0.66757   0.38138   0.75000 
C          C       0.61938   0.33399   0.75000 
C          C       0.57313   0.33637   0.75000 
C          C       0.57442   0.38318   0.75000 
C          C       0.62065   0.42861   0.75000 
C          C       0.66673   0.42843   0.75000 
C          C       0.61862   0.28618   0.75000 
C          C       0.66601   0.28539   0.75000 
C          C       0.66363   0.23676   0.75000 
C          C       0.61682   0.19124   0.75000 
C          C       0.57139   0.19204   0.75000 
C          C       0.57157   0.23830   0.75000 
C          C       0.33243   0.71382   0.75000 
C          C       0.38062   0.71461   0.75000 
C          C       0.42687   0.76324   0.75000 
C          C       0.42558   0.80876   0.75000 
C          C       0.37935   0.80796   0.75000 
C          C       0.33327   0.76170   0.75000 
C          C       0.38138   0.66757   0.75000 
C          C       0.33399   0.61938   0.75000 
C          C       0.33637   0.57313   0.75000 
C          C       0.38318   0.57442   0.75000 
C          C       0.42861   0.62065   0.75000 
C          C       0.42843   0.66673   0.75000 
C          C       0.28618   0.61862   0.75000 
C          C       0.28539   0.66601   0.75000 
C          C       0.23676   0.66363   0.75000 
C          C       0.19124   0.61682   0.75000 
C          C       0.19204   0.57139   0.75000 
C          C       0.23830   0.57157   0.75000 
O          O       0.85574   0.38655   0.75000 
O          O       0.61345   0.46919   0.75000 
O          O       0.53081   0.14426   0.75000 
O          O       0.38655   0.85574   0.75000 
O          O       0.46919   0.61345   0.75000 
O          O       0.14426   0.53081   0.75000 
B          B       0.88831   0.44141   0.75000 
B          B       0.55859   0.44690   0.75000 
B          B       0.55310   0.11169   0.75000 
B          B       0.44141   0.88831   0.75000 
B          B       0.44690   0.55859   0.75000 
B          B       0.11169   0.55310   0.75000 
O          O       0.85713   0.46531   0.75000 
O          O       0.53469   0.39182   0.75000 
O          O       0.60818   0.14287   0.75000 
O          O       0.46531   0.85713   0.75000 
O          O       0.39182   0.53469   0.75000 
O          O       0.14287   0.60818   0.75000 
H          H       0.76796   0.46261   0.75000 
H          H       0.53739   0.30534   0.75000 
H          H       0.69466   0.23204   0.75000 
H          H       0.76538   0.30161   0.75000 
H          H       0.69839   0.46377   0.75000 
H          H       0.53624   0.23462   0.75000 
H          H       0.46261   0.76796   0.75000 
H          H       0.30534   0.53739   0.75000 
H          H       0.23204   0.69466   0.75000 
H          H       0.30161   0.76538   0.75000 
H          H       0.46377   0.69839   0.75000 
H          H       0.23462   0.53624   0.75000 
C          C       0.05470   0.52469   0.75000 
C          C       0.47531   0.53001   0.75000 
C          C       0.46999   0.94530   0.75000 
C          C       0.52469   0.05470   0.75000 
C          C       0.53001   0.47531   0.75000 
C          C       0.94530   0.46999   0.75000 
C          C       0.02674   0.47069   0.75000 
C          C       0.52931   0.55605   0.75000 
C          C       0.44395   0.97326   0.75000 
C          C       0.47069   0.02674   0.75000 
C          C       0.55605   0.52931   0.75000 
C          C       0.97326   0.44395   0.75000 
C          C       0.97300   0.52423   0.75000 
C          C       0.47577   0.44877   0.75000 
C          C       0.55123   0.02700   0.75000 
C          C       0.52423   0.97300   0.75000 
C          C       0.44877   0.47577   0.75000 
C          C       0.02700   0.55123   0.75000 
N          N       0.56120   0.60679   0.75000 
N          N       0.39321   0.95442   0.75000 
N          N       0.04558   0.43880   0.75000 
N          N       0.60679   0.56120   0.75000 
N          N       0.95442   0.39321   0.75000 
N          N       0.43880   0.04558   0.75000 
S          S       0.62356   0.62356   0.75000 
S          S       0.37644   0.00000   0.75000 
S          S      -0.00000   0.37644   0.75000 
H          H       0.04618   0.59061   0.75000 
H          H       0.40939   0.45557   0.75000 
H          H       0.54443   0.95382   0.75000 
H          H       0.59061   0.04618   0.75000 
H          H       0.45557   0.40939   0.75000 
H          H       0.95382   0.54443   0.75000 
