data_crystal

_cell_length_a    25.06450
_cell_length_b    25.06450
_cell_length_c    8.59780
_cell_angle_alpha 90.00000
_cell_angle_beta  90.00000
_cell_angle_gamma 120.00000

_space_group_name_Hall 'P 1'
_space_group_name_H-M_alt  'P 1'

loop_
_symmetry_equiv_pos_as_xyz
'x,y,z' 

loop_
_atom_site_label
_atom_site_type_symbol
_atom_site_fract_x
_atom_site_fract_y
_atom_site_fract_z
C          C       0.55638   0.38826  -0.39797 
C          C       0.54748   0.34038  -0.49234 
C          C       0.59625   0.34775  -0.58649 
C          C       0.46388   0.44021  -0.05375 
O          O       0.51685   0.39176  -0.29569 
H          H       0.50315   0.29735  -0.49436 
H          H       0.43562   0.39304  -0.09736 
C          C       0.61174   0.16812  -0.39797 
C          C       0.65962   0.20710  -0.49234 
C          C       0.65225   0.24850  -0.58649 
C          C       0.55979   0.02367  -0.05375 
O          O       0.60824   0.12509  -0.29569 
H          H       0.70265   0.20580  -0.49436 
H          H       0.60696   0.04258  -0.09736 
C          C       0.83188   0.44362  -0.39797 
C          C       0.79290   0.45252  -0.49234 
C          C       0.75150   0.40375  -0.58649 
C          C       0.97633   0.53612  -0.05375 
O          O       0.87491   0.48315  -0.29569 
H          H       0.79420   0.49685  -0.49436 
H          H       0.95742   0.56438  -0.09736 
C          C       0.38826   0.55638   0.39797 
C          C       0.34038   0.54748   0.49234 
C          C       0.34775   0.59625   0.58649 
C          C       0.44021   0.46388   0.05375 
O          O       0.39176   0.51685   0.29569 
H          H       0.29735   0.50315   0.49436 
H          H       0.39304   0.43562   0.09736 
C          C       0.16812   0.61174   0.39797 
C          C       0.20710   0.65962   0.49234 
C          C       0.24850   0.65225   0.58649 
C          C       0.02367   0.55979   0.05375 
O          O       0.12509   0.60824   0.29569 
H          H       0.20580   0.70265   0.49436 
H          H       0.04258   0.60696   0.09736 
C          C       0.44362   0.83188   0.39797 
C          C       0.45252   0.79290   0.49234 
C          C       0.40375   0.75150   0.58649 
C          C       0.53612   0.97633   0.05375 
O          O       0.48315   0.87491   0.29569 
H          H       0.49685   0.79420   0.49436 
H          H       0.56438   0.95742   0.09736 
C          C       0.44362   0.61174   0.39797 
C          C       0.45252   0.65962   0.49234 
C          C       0.40375   0.65225   0.58649 
C          C       0.53612   0.55979   0.05375 
O          O       0.48315   0.60824   0.29569 
H          H       0.49685   0.70265   0.49436 
H          H       0.56438   0.60696   0.09736 
C          C       0.38826   0.83188   0.39797 
C          C       0.34038   0.79290   0.49234 
C          C       0.34775   0.75150   0.58649 
C          C       0.44021   0.97633   0.05375 
O          O       0.39176   0.87491   0.29569 
H          H       0.29735   0.79420   0.49436 
H          H       0.39304   0.95742   0.09736 
C          C       0.16812   0.55638   0.39797 
C          C       0.20710   0.54748   0.49234 
C          C       0.24850   0.59625   0.58649 
C          C       0.02367   0.46388   0.05375 
O          O       0.12509   0.51685   0.29569 
H          H       0.20580   0.50315   0.49436 
H          H       0.04258   0.43562   0.09736 
C          C       0.61174   0.44362  -0.39797 
C          C       0.65962   0.45252  -0.49234 
C          C       0.65225   0.40375  -0.58649 
C          C       0.55979   0.53612  -0.05375 
O          O       0.60824   0.48315  -0.29569 
H          H       0.70265   0.49685  -0.49436 
H          H       0.60696   0.56438  -0.09736 
C          C       0.83188   0.38826  -0.39797 
C          C       0.79290   0.34038  -0.49234 
C          C       0.75150   0.34775  -0.58649 
C          C       0.97633   0.44021  -0.05375 
O          O       0.87491   0.39176  -0.29569 
H          H       0.79420   0.29735  -0.49436 
H          H       0.95742   0.39304  -0.09736 
C          C       0.55638   0.16812  -0.39797 
C          C       0.54748   0.20710  -0.49234 
C          C       0.59625   0.24850  -0.58649 
C          C       0.46388   0.02367  -0.05375 
O          O       0.51685   0.12509  -0.29569 
H          H       0.50315   0.20580  -0.49436 
H          H       0.43562   0.04258  -0.09736 
C          C       0.58635   0.29318  -0.68081 
H          H       0.53847   0.26924  -0.72481 
H          H       0.61512   0.30756  -0.78636 
C          C       0.70683   0.29318  -0.68081 
H          H       0.73076   0.26924  -0.72481 
H          H       0.69244   0.30756  -0.78636 
C          C       0.70683   0.41365  -0.68081 
H          H       0.73076   0.46153  -0.72481 
H          H       0.69244   0.38488  -0.78636 
C          C       0.29318   0.58635   0.68081 
H          H       0.26924   0.53847   0.72481 
H          H       0.30756   0.61512   0.78636 
C          C       0.29318   0.70683   0.68081 
H          H       0.26924   0.73076   0.72481 
H          H       0.30756   0.69244   0.78636 
C          C       0.41365   0.70683   0.68081 
H          H       0.46153   0.73076   0.72481 
H          H       0.38488   0.69244   0.78636 
C          C       0.52400   0.47600  -0.10927 
B          B       0.54943   0.45057  -0.23188 
C          C       0.52400   0.04800  -0.10927 
B          B       0.54943   0.09886  -0.23188 
C          C       0.95200   0.47600  -0.10927 
B          B       0.90114   0.45057  -0.23188 
C          C       0.47600   0.52400   0.10927 
B          B       0.45057   0.54943   0.23188 
C          C       0.04800   0.52400   0.10927 
B          B       0.09886   0.54943   0.23188 
C          C       0.47600   0.95200   0.10927 
B          B       0.45057   0.90114   0.23188 
C          C       0.55638   0.38826   0.10202 
C          C       0.54748   0.34038   0.00766 
C          C       0.59625   0.34775  -0.08649 
C          C       0.46388   0.44021   0.44625 
O          O       0.51685   0.39176   0.20431 
H          H       0.50315   0.29735   0.00564 
H          H       0.43562   0.39304   0.40264 
C          C       0.61174   0.16812   0.10202 
C          C       0.65962   0.20710   0.00766 
C          C       0.65225   0.24850  -0.08649 
C          C       0.55979   0.02367   0.44625 
O          O       0.60824   0.12509   0.20431 
H          H       0.70265   0.20580   0.00564 
H          H       0.60696   0.04258   0.40264 
C          C       0.83188   0.44362   0.10202 
C          C       0.79290   0.45252   0.00766 
C          C       0.75150   0.40375  -0.08649 
C          C       0.97633   0.53612   0.44625 
O          O       0.87491   0.48315   0.20431 
H          H       0.79420   0.49685   0.00564 
H          H       0.95742   0.56438   0.40264 
C          C       0.38826   0.55638   0.89797 
C          C       0.34038   0.54748   0.99234 
C          C       0.34775   0.59625   1.08649 
C          C       0.44021   0.46388   0.55375 
O          O       0.39176   0.51685   0.79569 
H          H       0.29735   0.50315   0.99436 
H          H       0.39304   0.43562   0.59736 
C          C       0.16812   0.61174   0.89797 
C          C       0.20710   0.65962   0.99234 
C          C       0.24850   0.65225   1.08649 
C          C       0.02367   0.55979   0.55375 
O          O       0.12509   0.60824   0.79569 
H          H       0.20580   0.70265   0.99436 
H          H       0.04258   0.60696   0.59736 
C          C       0.44362   0.83188   0.89797 
C          C       0.45252   0.79290   0.99234 
C          C       0.40375   0.75150   1.08649 
C          C       0.53612   0.97633   0.55375 
O          O       0.48315   0.87491   0.79569 
H          H       0.49685   0.79420   0.99436 
H          H       0.56438   0.95742   0.59736 
C          C       0.44362   0.61174   0.89797 
C          C       0.45252   0.65962   0.99234 
C          C       0.40375   0.65225   1.08649 
C          C       0.53612   0.55979   0.55375 
O          O       0.48315   0.60824   0.79569 
H          H       0.49685   0.70265   0.99436 
H          H       0.56438   0.60696   0.59736 
C          C       0.38826   0.83188   0.89797 
C          C       0.34038   0.79290   0.99234 
C          C       0.34775   0.75150   1.08649 
C          C       0.44021   0.97633   0.55375 
O          O       0.39176   0.87491   0.79569 
H          H       0.29735   0.79420   0.99436 
H          H       0.39304   0.95742   0.59736 
C          C       0.16812   0.55638   0.89797 
C          C       0.20710   0.54748   0.99234 
C          C       0.24850   0.59625   1.08649 
C          C       0.02367   0.46388   0.55375 
O          O       0.12509   0.51685   0.79569 
H          H       0.20580   0.50315   0.99436 
H          H       0.04258   0.43562   0.59736 
C          C       0.61174   0.44362   0.10202 
C          C       0.65962   0.45252   0.00766 
C          C       0.65225   0.40375  -0.08649 
C          C       0.55979   0.53612   0.44625 
O          O       0.60824   0.48315   0.20431 
H          H       0.70265   0.49685   0.00564 
H          H       0.60696   0.56438   0.40264 
C          C       0.83188   0.38826   0.10202 
C          C       0.79290   0.34038   0.00766 
C          C       0.75150   0.34775  -0.08649 
C          C       0.97633   0.44021   0.44625 
O          O       0.87491   0.39176   0.20431 
H          H       0.79420   0.29735   0.00564 
H          H       0.95742   0.39304   0.40264 
C          C       0.55638   0.16812   0.10202 
C          C       0.54748   0.20710   0.00766 
C          C       0.59625   0.24850  -0.08649 
C          C       0.46388   0.02367   0.44625 
O          O       0.51685   0.12509   0.20431 
H          H       0.50315   0.20580   0.00564 
H          H       0.43562   0.04258   0.40264 
C          C       0.58635   0.29318  -0.18081 
H          H       0.53847   0.26924  -0.22481 
H          H       0.61512   0.30756  -0.28636 
C          C       0.70683   0.29318  -0.18081 
H          H       0.73076   0.26924  -0.22481 
H          H       0.69244   0.30756  -0.28636 
C          C       0.70683   0.41365  -0.18081 
H          H       0.73076   0.46153  -0.22481 
H          H       0.69244   0.38488  -0.28636 
C          C       0.29318   0.58635   1.18081 
H          H       0.26924   0.53847   1.22481 
H          H       0.30756   0.61512   1.28635 
C          C       0.29318   0.70683   1.18081 
H          H       0.26924   0.73076   1.22481 
H          H       0.30756   0.69244   1.28635 
C          C       0.41365   0.70683   1.18081 
H          H       0.46153   0.73076   1.22481 
H          H       0.38488   0.69244   1.28635 
C          C       0.52400   0.47600   0.39072 
B          B       0.54943   0.45057   0.26812 
C          C       0.52400   0.04800   0.39072 
B          B       0.54943   0.09886   0.26812 
C          C       0.95200   0.47600   0.39072 
B          B       0.90114   0.45057   0.26812 
C          C       0.47600   0.52400   0.60928 
B          B       0.45057   0.54943   0.73188 
C          C       0.04800   0.52400   0.60928 
B          B       0.09886   0.54943   0.73188 
C          C       0.47600   0.95200   0.60928 
B          B       0.45057   0.90114   0.73188 
