data_crystal

_cell_length_a    15.29050
_cell_length_b    15.29050
_cell_length_c    6.91580
_cell_angle_alpha 90.00000
_cell_angle_beta  90.00000
_cell_angle_gamma 120.00000

_space_group_name_Hall 'P 1'
_space_group_name_H-M_alt  'P 1'

loop_
_symmetry_equiv_pos_as_xyz
'x,y,z' 

loop_
_atom_site_label
_atom_site_type_symbol
_atom_site_fract_x
_atom_site_fract_y
_atom_site_fract_z
B          B       0.44040   0.72020   0.00000 
H          H       0.52720   0.76360   0.00000 
B          B       0.27980   0.72020   0.00000 
H          H       0.23640   0.76360   0.00000 
B          B       0.27980   0.55960   0.00000 
H          H       0.23640   0.47280   0.00000 
C          C       0.56170   0.28085   0.00000 
C          C       0.71915   0.28085   0.00000 
C          C       0.71915   0.43830   0.00000 
C          C       0.61260   0.22520   0.00000 
H          H       0.75910   0.51820   0.00000 
C          C       0.77480   0.38740   0.00000 
H          H       0.48180   0.24090   0.00000 
C          C       0.61260   0.38740   0.00000 
H          H       0.75910   0.24090   0.00000 
C          C       0.55230   0.60440   0.00000 
C          C       0.60490   0.55150   0.00000 
H          H       0.40190   0.31430   0.00000 
H          H       0.31510   0.39990   0.00000 
C          C       0.39560   0.94790   0.00000 
C          C       0.44850   0.05340   0.00000 
H          H       0.68570   0.08760   0.00000 
H          H       0.60010   0.91520   0.00000 
C          C       0.05210   0.44770   0.00000 
C          C       0.94660   0.39510   0.00000 
H          H       0.91240   0.59810   0.00000 
H          H       0.08480   0.68490   0.00000 
C          C       0.39560   0.44770   0.00000 
C          C       0.44850   0.39510   0.00000 
H          H       0.68570   0.59810   0.00000 
H          H       0.60010   0.68490   0.00000 
C          C       0.05210   0.60440   0.00000 
C          C       0.94660   0.55150   0.00000 
H          H       0.91240   0.31430   0.00000 
H          H       0.08480   0.39990   0.00000 
C          C       0.55230   0.94790   0.00000 
C          C       0.60490   0.05340   0.00000 
H          H       0.40190   0.08760   0.00000 
H          H       0.31510   0.91520   0.00000 
C          C       0.55490   0.44510   0.00000 
C          C       0.44510   0.55490   0.00000 
C          C       0.55490   0.10980   0.00000 
C          C       0.44510   0.89020   0.00000 
C          C       0.89020   0.44510   0.00000 
C          C       0.10980   0.55490   0.00000 
N          N       0.38900   0.77800   0.00000 
N          N       0.22200   0.61100   0.00000 
N          N       0.38900   0.61100   0.00000 
B          B       0.44040   0.72020   0.50000 
H          H       0.52720   0.76360   0.50000 
B          B       0.27980   0.72020   0.50000 
H          H       0.23640   0.76360   0.50000 
B          B       0.27980   0.55960   0.50000 
H          H       0.23640   0.47280   0.50000 
C          C       0.56170   0.28085   0.50000 
C          C       0.71915   0.28085   0.50000 
C          C       0.71915   0.43830   0.50000 
C          C       0.61260   0.22520   0.50000 
H          H       0.75910   0.51820   0.50000 
C          C       0.77480   0.38740   0.50000 
H          H       0.48180   0.24090   0.50000 
C          C       0.61260   0.38740   0.50000 
H          H       0.75910   0.24090   0.50000 
C          C       0.55230   0.60440   0.50000 
C          C       0.60490   0.55150   0.50000 
H          H       0.40190   0.31430   0.50000 
H          H       0.31510   0.39990   0.50000 
C          C       0.39560   0.94790   0.50000 
C          C       0.44850   0.05340   0.50000 
H          H       0.68570   0.08760   0.50000 
H          H       0.60010   0.91520   0.50000 
C          C       0.05210   0.44770   0.50000 
C          C       0.94660   0.39510   0.50000 
H          H       0.91240   0.59810   0.50000 
H          H       0.08480   0.68490   0.50000 
C          C       0.39560   0.44770   0.50000 
C          C       0.44850   0.39510   0.50000 
H          H       0.68570   0.59810   0.50000 
H          H       0.60010   0.68490   0.50000 
C          C       0.05210   0.60440   0.50000 
C          C       0.94660   0.55150   0.50000 
H          H       0.91240   0.31430   0.50000 
H          H       0.08480   0.39990   0.50000 
C          C       0.55230   0.94790   0.50000 
C          C       0.60490   0.05340   0.50000 
H          H       0.40190   0.08760   0.50000 
H          H       0.31510   0.91520   0.50000 
C          C       0.55490   0.44510   0.50000 
C          C       0.44510   0.55490   0.50000 
C          C       0.55490   0.10980   0.50000 
C          C       0.44510   0.89020   0.50000 
C          C       0.89020   0.44510   0.50000 
C          C       0.10980   0.55490   0.50000 
N          N       0.38900   0.77800   0.50000 
N          N       0.22200   0.61100   0.50000 
N          N       0.38900   0.61100   0.50000 
