data_crystal
 
_cell_length_a    15.21970
_cell_length_b    15.21970
_cell_length_c    7.05930
_cell_angle_alpha 90.00000
_cell_angle_beta  90.00000
_cell_angle_gamma 120.00000
 
_symmetry_space_group_name_Hall 'P 1'
_symmetry_space_group_name_H-M  'P 1'
 
loop_
_symmetry_equiv_pos_as_xyz
 'x,y,z' 
 
loop_
_atom_site_label
_atom_site_type_symbol
_atom_site_fract_x
_atom_site_fract_y
_atom_site_fract_z
_atom_site_charge
B          B       0.38690   0.61310   0.25000   0.0000000000
H          H       0.43030   0.56970   0.25000   0.0000000000
B          B       0.38690   0.77380   0.25000   0.0000000000
H          H       0.43030   0.86060   0.25000   0.0000000000
B          B       0.22620   0.61310   0.25000   0.0000000000
H          H       0.13940   0.56970   0.25000   0.0000000000
B          B       0.61310   0.38690   0.75000   0.0000000000
H          H       0.56970   0.43030   0.75000   0.0000000000
B          B       0.61310   0.22620   0.75000   0.0000000000
H          H       0.56970   0.13940   0.75000   0.0000000000
B          B       0.77380   0.38690   0.75000   0.0000000000
H          H       0.86060   0.43030   0.75000   0.0000000000
C          C       0.05405   0.10810   0.25000   0.0000000000
C          C       0.11170   0.22340   0.25000   0.0000000000
C          C       0.22205   0.44410   0.25000   0.0000000000
N          N       0.27815   0.55630   0.25000   0.0000000000
C          C       0.89190   0.94595   0.25000   0.0000000000
C          C       0.77660   0.88830   0.25000   0.0000000000
C          C       0.55590   0.77795   0.25000   0.0000000000
N          N       0.44370   0.72185   0.25000   0.0000000000
C          C       0.05405   0.94595   0.25000   0.0000000000
C          C       0.11170   0.88830   0.25000   0.0000000000
C          C       0.22205   0.77795   0.25000   0.0000000000
N          N       0.27815   0.72185   0.25000   0.0000000000
C          C       0.94595   0.89190   0.75000   0.0000000000
C          C       0.88830   0.77660   0.75000   0.0000000000
C          C       0.77795   0.55590   0.75000   0.0000000000
N          N       0.72185   0.44370   0.75000   0.0000000000
C          C       0.10810   0.05405   0.75000   0.0000000000
C          C       0.22340   0.11170   0.75000   0.0000000000
C          C       0.44410   0.22205   0.75000   0.0000000000
N          N       0.55630   0.27815   0.75000   0.0000000000
C          C       0.94595   0.05405   0.75000   0.0000000000
C          C       0.88830   0.11170   0.75000   0.0000000000
C          C       0.77795   0.22205   0.75000   0.0000000000
N          N       0.72185   0.27815   0.75000   0.0000000000
C          C       0.10470   0.05235   0.25000   0.0000000000
C          C       0.94765   0.05235   0.25000   0.0000000000
C          C       0.94765   0.89530   0.25000   0.0000000000
C          C       0.89530   0.94765   0.75000   0.0000000000
C          C       0.05235   0.94765   0.75000   0.0000000000
C          C       0.05235   0.10470   0.75000   0.0000000000
C          C       0.21900   0.28000   0.25000   0.0000000000
C          C       0.27120   0.38600   0.25000   0.0000000000
H          H       0.58050   0.64840   0.25000   0.0000000000
H          H       0.75290   0.73240   0.25000   0.0000000000
C          C       0.72000   0.93900   0.25000   0.0000000000
C          C       0.61400   0.88520   0.25000   0.0000000000
H          H       0.35160   0.93210   0.25000   0.0000000000
H          H       0.26760   0.02050   0.25000   0.0000000000
C          C       0.06100   0.78100   0.25000   0.0000000000
C          C       0.11480   0.72880   0.25000   0.0000000000
H          H       0.06790   0.41950   0.25000   0.0000000000
H          H       0.97950   0.24710   0.25000   0.0000000000
C          C       0.78100   0.72000   0.75000   0.0000000000
C          C       0.72880   0.61400   0.75000   0.0000000000
H          H       0.41950   0.35160   0.75000   0.0000000000
H          H       0.24710   0.26760   0.75000   0.0000000000
C          C       0.28000   0.06100   0.75000   0.0000000000
C          C       0.38600   0.11480   0.75000   0.0000000000
H          H       0.64840   0.06790   0.75000   0.0000000000
H          H       0.73240   0.97950   0.75000   0.0000000000
C          C       0.93900   0.21900   0.75000   0.0000000000
C          C       0.88520   0.27120   0.75000   0.0000000000
H          H       0.93210   0.58050   0.75000   0.0000000000
H          H       0.02050   0.75290   0.75000   0.0000000000
C          C       0.28000   0.21900   0.75000   0.0000000000
C          C       0.38600   0.27120   0.75000   0.0000000000
H          H       0.64840   0.58050   0.75000   0.0000000000
H          H       0.73240   0.75290   0.75000   0.0000000000
C          C       0.93900   0.72000   0.75000   0.0000000000
C          C       0.88520   0.61400   0.75000   0.0000000000
H          H       0.93210   0.35160   0.75000   0.0000000000
H          H       0.02050   0.26760   0.75000   0.0000000000
C          C       0.78100   0.06100   0.75000   0.0000000000
C          C       0.72880   0.11480   0.75000   0.0000000000
H          H       0.41950   0.06790   0.75000   0.0000000000
H          H       0.24710   0.97950   0.75000   0.0000000000
C          C       0.72000   0.78100   0.25000   0.0000000000
C          C       0.61400   0.72880   0.25000   0.0000000000
H          H       0.35160   0.41950   0.25000   0.0000000000
H          H       0.26760   0.24710   0.25000   0.0000000000
C          C       0.06100   0.28000   0.25000   0.0000000000
C          C       0.11480   0.38600   0.25000   0.0000000000
H          H       0.06790   0.64840   0.25000   0.0000000000
H          H       0.97950   0.73240   0.25000   0.0000000000
C          C       0.21900   0.93900   0.25000   0.0000000000
C          C       0.27120   0.88520   0.25000   0.0000000000
H          H       0.58050   0.93210   0.25000   0.0000000000
H          H       0.75290   0.02050   0.25000   0.0000000000
H          H       0.09210   0.18420   0.75000   0.0000000000
H          H       0.81580   0.90790   0.75000   0.0000000000
H          H       0.09210   0.90790   0.75000   0.0000000000
H          H       0.90790   0.81580   0.25000   0.0000000000
H          H       0.18420   0.09210   0.25000   0.0000000000
H          H       0.90790   0.09210   0.25000   0.0000000000
