data_crystal

_cell_length_a    46.22630
_cell_length_b    46.24450
_cell_length_c    7.14140
_cell_angle_alpha 90.00000
_cell_angle_beta  90.00000
_cell_angle_gamma 89.98560

_space_group_name_Hall 'P 1'
_space_group_name_H-M_alt  'P 1'

loop_
_symmetry_equiv_pos_as_xyz
'x,y,z' 

loop_
_atom_site_label
_atom_site_type_symbol
_atom_site_fract_x
_atom_site_fract_y
_atom_site_fract_z
N          N       0.49998   0.54175   0.25000 
N          N       0.55087   0.55090   0.25000 
C          C       0.55945   0.52325   0.25000 
C          C       0.58968   0.51474   0.25000 
C          C       0.58958   0.48516   0.25000 
C          C       0.55931   0.47684   0.25000 
C          C       0.61517   0.46893   0.25000 
C          C       0.64098   0.48471   0.25000 
C          C       0.64109   0.51477   0.25000 
C          C       0.61540   0.53076   0.25000 
O          O       0.66864   0.52625   0.25000 
B          B       0.68564   0.49955   0.25000 
O          O       0.66844   0.47300   0.25000 
N          N       0.94864   0.55042   0.25000 
C          C       0.94026   0.52271   0.25000 
N          N       0.95837   0.49965   0.25000 
C          C       0.94062   0.47629   0.25000 
C          C       0.91027   0.48449   0.25000 
C          C       0.91011   0.51407   0.25000 
C          C       0.88441   0.53009   0.25000 
C          C       0.85873   0.51413   0.25000 
C          C       0.85883   0.48407   0.25000 
C          C       0.88466   0.46826   0.25000 
C          C       0.97725   0.44035   0.25000 
C          C       0.97016   0.38435   0.25000 
C          C       0.98635   0.35877   0.25000 
N          N       0.94951   0.44873   0.25000 
O          O       0.83122   0.52567   0.25000 
B          B       0.81417   0.49903   0.25000 
C          C       0.78034   0.49920   0.25000 
C          C       0.76489   0.47305   0.25000 
C          C       0.73492   0.52569   0.25000 
C          C       0.76511   0.52554   0.25000 
O          O       0.83133   0.47242   0.25000 
H          H       0.61522   0.44555   0.25000 
H          H       0.61563   0.55413   0.25000 
H          H       0.88460   0.44488   0.25000 
H          H       0.88419   0.55346   0.25000 
H          H       0.72371   0.54637   0.25000 
H          H       0.77652   0.54611   0.25000 
H          H       0.72328   0.45266   0.25000 
H          H       0.77609   0.45240   0.25000 
C          C       0.55915   0.02358   0.25000 
C          C       0.58948   0.01550   0.25000 
C          C       0.64087   0.01633   0.25000 
C          C       0.61495   0.03192   0.25000 
H          H       0.61482   0.05530   0.25000 
N          N       0.54146   0.00021   0.25000 
N          N       0.94982   0.05166   0.25000 
C          C       0.94076   0.02417   0.25000 
N          N       0.95836   0.00069   0.25000 
C          C       0.58980   0.98592   0.25000 
O          O       0.66886   0.97502   0.25000 
B          B       0.68565   0.00184   0.25000 
O          O       0.66824   0.02824   0.25000 
C          C       0.91037   0.01618   0.25000 
C          C       0.91000   0.98660   0.25000 
C          C       0.94011   0.97776   0.25000 
C          C       0.88418   0.97080   0.25000 
C          C       0.85893   0.01703   0.25000 
C          C       0.88488   0.03263   0.25000 
C          C       0.85863   0.98697   0.25000 
O          O       0.83150   0.02887   0.25000 
B          B       0.81418   0.00239   0.25000 
C          C       0.78035   0.00234   0.25000 
C          C       0.76512   0.97602   0.25000 
C          C       0.73495   0.97587   0.25000 
C          C       0.71947   0.00205   0.25000 
C          C       0.73469   0.02837   0.25000 
O          O       0.83104   0.97564   0.25000 
H          H       0.61601   0.94672   0.25000 
H          H       0.88376   0.94742   0.25000 
H          H       0.88504   0.05600   0.25000 
H          H       0.72376   0.95518   0.25000 
H          H       0.77649   0.95542   0.25000 
H          H       0.72330   0.04892   0.25000 
H          H       0.77610   0.04916   0.25000 
C          C       0.71946   0.49950   0.25000 
C          C       0.73469   0.47320   0.25000 
C          C       0.76489   0.02851   0.25000 
N          N       0.49975   0.45867   0.25000 
N          N       0.44887   0.44953   0.25000 
C          C       0.44031   0.47718   0.25000 
C          C       0.41008   0.48568   0.25000 
C          C       0.41016   0.51526   0.25000 
C          C       0.44043   0.52358   0.25000 
C          C       0.38455   0.53146   0.25000 
C          C       0.35876   0.51565   0.25000 
C          C       0.35868   0.48559   0.25000 
C          C       0.38439   0.46963   0.25000 
O          O       0.33114   0.47409   0.25000 
B          B       0.31414   0.50077   0.25000 
O          O       0.33130   0.52732   0.25000 
N          N       0.05122   0.44969   0.25000 
C          C       0.05961   0.47738   0.25000 
N          N       0.04149   0.50044   0.25000 
C          C       0.05924   0.52379   0.25000 
C          C       0.08958   0.51560   0.25000 
C          C       0.08977   0.48602   0.25000 
C          C       0.11550   0.47002   0.25000 
C          C       0.14114   0.48602   0.25000 
C          C       0.14101   0.51608   0.25000 
C          C       0.11516   0.53186   0.25000 
C          C       0.02262   0.55975   0.25000 
C          C       0.02975   0.61572   0.25000 
C          C       0.01358   0.64132   0.25000 
N          N       0.05035   0.55136   0.25000 
O          O       0.16866   0.47452   0.25000 
B          B       0.18566   0.50117   0.25000 
C          C       0.21946   0.50103   0.25000 
C          C       0.23488   0.52720   0.25000 
C          C       0.26490   0.47458   0.25000 
C          C       0.23472   0.47470   0.25000 
O          O       0.16848   0.52775   0.25000 
H          H       0.38448   0.55484   0.25000 
H          H       0.38423   0.44625   0.25000 
H          H       0.11516   0.55524   0.25000 
H          H       0.11578   0.44664   0.25000 
H          H       0.27612   0.45391   0.25000 
H          H       0.22335   0.45410   0.25000 
H          H       0.27641   0.54765   0.25000 
H          H       0.22366   0.54784   0.25000 
C          C       0.44063   0.97616   0.25000 
C          C       0.41030   0.98427   0.25000 
C          C       0.35891   0.98349   0.25000 
C          C       0.38482   0.96787   0.25000 
H          H       0.38493   0.94449   0.25000 
N          N       0.45832   0.99953   0.25000 
N          N       0.05001   0.94846   0.25000 
C          C       0.05907   0.97596   0.25000 
N          N       0.04147   0.99942   0.25000 
C          C       0.41000   0.01384   0.25000 
O          O       0.33098   0.02484   0.25000 
B          B       0.31416   0.99805   0.25000 
O          O       0.33153   0.97161   0.25000 
C          C       0.08946   0.98392   0.25000 
C          C       0.08983   0.01350   0.25000 
C          C       0.05972   0.02237   0.25000 
C          C       0.11565   0.02930   0.25000 
C          C       0.14089   0.98306   0.25000 
C          C       0.11494   0.96747   0.25000 
C          C       0.14120   0.01312   0.25000 
O          O       0.16831   0.97120   0.25000 
B          B       0.18564   0.99767   0.25000 
C          C       0.21947   0.99767   0.25000 
C          C       0.23473   0.02398   0.25000 
C          C       0.26490   0.02409   0.25000 
C          C       0.28035   0.99789   0.25000 
C          C       0.26511   0.97160   0.25000 
O          O       0.16880   0.02443   0.25000 
H          H       0.38383   0.05307   0.25000 
H          H       0.11605   0.05267   0.25000 
H          H       0.11481   0.94409   0.25000 
H          H       0.27611   0.04478   0.25000 
H          H       0.22338   0.04459   0.25000 
H          H       0.27649   0.95104   0.25000 
H          H       0.22369   0.95085   0.25000 
C          C       0.28032   0.50080   0.25000 
C          C       0.26507   0.52709   0.25000 
C          C       0.23490   0.97149   0.25000 
Zn         Zn      0.99993   0.50006   0.25000 
Zn         Zn      0.99992   0.00007   0.25000 
N          N       0.45830   0.50033   0.25000 
N          N       0.44914   0.55118   0.25000 
C          C       0.47680   0.55973   0.25000 
C          C       0.48528   0.58994   0.25000 
C          C       0.51487   0.58986   0.25000 
C          C       0.52324   0.55961   0.25000 
C          C       0.53105   0.61545   0.25000 
C          C       0.51521   0.64123   0.25000 
C          C       0.48514   0.64131   0.25000 
C          C       0.46919   0.61561   0.25000 
O          O       0.47361   0.66884   0.25000 
B          B       0.50029   0.68583   0.25000 
O          O       0.52687   0.66868   0.25000 
N          N       0.44954   0.94863   0.25000 
C          C       0.47725   0.94025   0.25000 
N          N       0.50031   0.95834   0.25000 
C          C       0.52368   0.94059   0.25000 
C          C       0.51548   0.91026   0.25000 
C          C       0.48589   0.91011   0.25000 
C          C       0.46986   0.88443   0.25000 
C          C       0.48583   0.85877   0.25000 
C          C       0.51590   0.85885   0.25000 
C          C       0.53172   0.88465   0.25000 
C          C       0.55962   0.97718   0.25000 
C          C       0.61563   0.97009   0.25000 
C          C       0.64121   0.98628   0.25000 
N          N       0.55125   0.94946   0.25000 
O          O       0.47428   0.83129   0.25000 
B          B       0.50091   0.81425   0.25000 
C          C       0.50069   0.78046   0.25000 
C          C       0.52684   0.76498   0.25000 
C          C       0.47414   0.73511   0.25000 
C          C       0.47432   0.76528   0.25000 
O          O       0.52753   0.83136   0.25000 
H          H       0.55443   0.61552   0.25000 
H          H       0.44581   0.61580   0.25000 
H          H       0.55511   0.88458   0.25000 
H          H       0.44647   0.88422   0.25000 
H          H       0.45345   0.72393   0.25000 
H          H       0.45374   0.77671   0.25000 
H          H       0.54720   0.72339   0.25000 
H          H       0.54752   0.77614   0.25000 
C          C       0.97619   0.55931   0.25000 
C          C       0.98430   0.58964   0.25000 
C          C       0.98351   0.64102   0.25000 
C          C       0.96789   0.61512   0.25000 
H          H       0.94451   0.61506   0.25000 
N          N       0.99958   0.54162   0.25000 
N          N       0.94833   0.94999   0.25000 
C          C       0.97583   0.94093   0.25000 
N          N       0.99930   0.95851   0.25000 
C          C       0.01389   0.58992   0.25000 
O          O       0.02487   0.66895   0.25000 
B          B       0.99805   0.68578   0.25000 
O          O       0.97162   0.66840   0.25000 
C          C       0.98381   0.91054   0.25000 
C          C       0.01339   0.91015   0.25000 
C          C       0.02225   0.94025   0.25000 
C          C       0.02919   0.88431   0.25000 
C          C       0.98292   0.85911   0.25000 
C          C       0.96734   0.88508   0.25000 
C          C       0.01299   0.85877   0.25000 
O          O       0.97104   0.83171   0.25000 
B          B       0.99752   0.81435   0.25000 
C          C       0.99755   0.78051   0.25000 
C          C       0.02388   0.76526   0.25000 
C          C       0.02402   0.73509   0.25000 
C          C       0.99783   0.71963   0.25000 
C          C       0.97151   0.73487   0.25000 
O          O       0.02430   0.83117   0.25000 
H          H       0.05313   0.61606   0.25000 
H          H       0.05257   0.88387   0.25000 
H          H       0.94396   0.88525   0.25000 
H          H       0.04472   0.72388   0.25000 
H          H       0.04448   0.77663   0.25000 
H          H       0.95095   0.72348   0.25000 
H          H       0.95072   0.77629   0.25000 
C          C       0.50033   0.71963   0.25000 
C          C       0.52666   0.73480   0.25000 
C          C       0.97137   0.76507   0.25000 
N          N       0.54145   0.50010   0.25000 
N          N       0.55058   0.44924   0.25000 
C          C       0.52291   0.44070   0.25000 
C          C       0.51442   0.41050   0.25000 
C          C       0.48483   0.41055   0.25000 
C          C       0.47649   0.44081   0.25000 
C          C       0.46865   0.38493   0.25000 
C          C       0.48452   0.35917   0.25000 
C          C       0.51459   0.35915   0.25000 
C          C       0.53051   0.38485   0.25000 
O          O       0.52617   0.33167   0.25000 
B          B       0.49954   0.31461   0.25000 
O          O       0.47292   0.33168   0.25000 
N          N       0.55024   0.05111   0.25000 
C          C       0.52253   0.05949   0.25000 
N          N       0.49947   0.04140   0.25000 
C          C       0.47611   0.05916   0.25000 
C          C       0.48431   0.08949   0.25000 
C          C       0.51390   0.08962   0.25000 
C          C       0.52995   0.11526   0.25000 
C          C       0.51400   0.14093   0.25000 
C          C       0.48393   0.14091   0.25000 
C          C       0.46808   0.11511   0.25000 
C          C       0.44017   0.02257   0.25000 
C          C       0.38419   0.02970   0.25000 
C          C       0.35860   0.01354   0.25000 
N          N       0.44854   0.05029   0.25000 
O          O       0.52561   0.16837   0.25000 
B          B       0.49901   0.18548   0.25000 
C          C       0.49946   0.21927   0.25000 
C          C       0.47348   0.23506   0.25000 
C          C       0.52610   0.26580   0.25000 
C          C       0.52595   0.23406   0.25000 
O          O       0.47235   0.16844   0.25000 
H          H       0.44526   0.38483   0.25000 
H          H       0.55389   0.38469   0.25000 
H          H       0.44470   0.11518   0.25000 
H          H       0.55333   0.11545   0.25000 
H          H       0.54675   0.27706   0.25000 
H          H       0.54650   0.22259   0.25000 
H          H       0.45301   0.27654   0.25000 
H          H       0.45274   0.22400   0.25000 
C          C       0.02368   0.44079   0.25000 
C          C       0.01558   0.41048   0.25000 
C          C       0.01641   0.35909   0.25000 
C          C       0.03201   0.38501   0.25000 
H          H       0.05540   0.38514   0.25000 
N          N       0.00029   0.45849   0.25000 
N          N       0.05151   0.05012   0.25000 
C          C       0.02401   0.05921   0.25000 
N          N       0.00053   0.04163   0.25000 
C          C       0.98599   0.41017   0.25000 
O          O       0.97508   0.33114   0.25000 
B          B       0.00191   0.31433   0.25000 
O          O       0.02832   0.33172   0.25000 
C          C       0.01605   0.08960   0.25000 
C          C       0.98646   0.08999   0.25000 
C          C       0.97759   0.05988   0.25000 
C          C       0.97067   0.11584   0.25000 
C          C       0.01694   0.14102   0.25000 
C          C       0.03252   0.11506   0.25000 
C          C       0.98688   0.14137   0.25000 
O          O       0.02883   0.16842   0.25000 
B          B       0.00236   0.18579   0.25000 
C          C       0.00236   0.21962   0.25000 
C          C       0.97603   0.23488   0.25000 
C          C       0.97590   0.26504   0.25000 
C          C       0.00210   0.28050   0.25000 
C          C       0.02841   0.26525   0.25000 
O          O       0.97558   0.16897   0.25000 
H          H       0.94678   0.38397   0.25000 
H          H       0.94729   0.11628   0.25000 
H          H       0.05591   0.11490   0.25000 
H          H       0.95520   0.27623   0.25000 
H          H       0.95542   0.22352   0.25000 
H          H       0.04898   0.27662   0.25000 
H          H       0.04920   0.22383   0.25000 
C          C       0.49976   0.28083   0.25000 
C          C       0.47363   0.26529   0.25000 
C          C       0.02855   0.23505   0.25000 
Zn         Zn      0.49989   0.99987   0.25000 
Zn         Zn      0.49987   0.50021   0.25000 
N          N       0.49998   0.54175   0.75000 
N          N       0.55087   0.55090   0.75000 
C          C       0.55945   0.52325   0.75000 
C          C       0.58968   0.51474   0.75000 
C          C       0.58958   0.48516   0.75000 
C          C       0.55931   0.47684   0.75000 
C          C       0.61517   0.46893   0.75000 
C          C       0.64098   0.48471   0.75000 
C          C       0.64109   0.51477   0.75000 
C          C       0.61540   0.53076   0.75000 
O          O       0.66864   0.52625   0.75000 
B          B       0.68564   0.49955   0.75000 
O          O       0.66844   0.47300   0.75000 
N          N       0.94864   0.55042   0.75000 
C          C       0.94026   0.52271   0.75000 
N          N       0.95837   0.49965   0.75000 
C          C       0.94062   0.47629   0.75000 
C          C       0.91027   0.48449   0.75000 
C          C       0.91011   0.51407   0.75000 
C          C       0.88441   0.53009   0.75000 
C          C       0.85873   0.51413   0.75000 
C          C       0.85883   0.48407   0.75000 
C          C       0.88466   0.46826   0.75000 
C          C       0.97725   0.44035   0.75000 
C          C       0.97016   0.38435   0.75000 
C          C       0.98635   0.35877   0.75000 
N          N       0.94951   0.44873   0.75000 
O          O       0.83122   0.52567   0.75000 
B          B       0.81417   0.49903   0.75000 
C          C       0.78034   0.49920   0.75000 
C          C       0.76489   0.47305   0.75000 
C          C       0.73492   0.52569   0.75000 
C          C       0.76511   0.52554   0.75000 
O          O       0.83133   0.47242   0.75000 
H          H       0.61522   0.44555   0.75000 
H          H       0.61563   0.55413   0.75000 
H          H       0.88460   0.44488   0.75000 
H          H       0.88419   0.55346   0.75000 
H          H       0.72371   0.54637   0.75000 
H          H       0.77652   0.54611   0.75000 
H          H       0.72328   0.45266   0.75000 
H          H       0.77609   0.45240   0.75000 
C          C       0.55915   0.02358   0.75000 
C          C       0.58948   0.01550   0.75000 
C          C       0.64087   0.01633   0.75000 
C          C       0.61495   0.03192   0.75000 
H          H       0.61482   0.05530   0.75000 
N          N       0.54146   0.00021   0.75000 
N          N       0.94982   0.05166   0.75000 
C          C       0.94076   0.02417   0.75000 
N          N       0.95836   0.00069   0.75000 
C          C       0.58980   0.98592   0.75000 
O          O       0.66886   0.97502   0.75000 
B          B       0.68565   0.00184   0.75000 
O          O       0.66824   0.02824   0.75000 
C          C       0.91037   0.01618   0.75000 
C          C       0.91000   0.98660   0.75000 
C          C       0.94011   0.97776   0.75000 
C          C       0.88418   0.97080   0.75000 
C          C       0.85893   0.01703   0.75000 
C          C       0.88488   0.03263   0.75000 
C          C       0.85863   0.98697   0.75000 
O          O       0.83150   0.02887   0.75000 
B          B       0.81418   0.00239   0.75000 
C          C       0.78035   0.00234   0.75000 
C          C       0.76512   0.97602   0.75000 
C          C       0.73495   0.97587   0.75000 
C          C       0.71947   0.00205   0.75000 
C          C       0.73469   0.02837   0.75000 
O          O       0.83104   0.97564   0.75000 
H          H       0.61601   0.94672   0.75000 
H          H       0.88376   0.94742   0.75000 
H          H       0.88504   0.05600   0.75000 
H          H       0.72376   0.95518   0.75000 
H          H       0.77649   0.95542   0.75000 
H          H       0.72330   0.04892   0.75000 
H          H       0.77610   0.04916   0.75000 
C          C       0.71946   0.49950   0.75000 
C          C       0.73469   0.47320   0.75000 
C          C       0.76489   0.02851   0.75000 
N          N       0.49975   0.45867   0.75000 
N          N       0.44887   0.44953   0.75000 
C          C       0.44031   0.47718   0.75000 
C          C       0.41008   0.48568   0.75000 
C          C       0.41016   0.51526   0.75000 
C          C       0.44043   0.52358   0.75000 
C          C       0.38455   0.53146   0.75000 
C          C       0.35876   0.51565   0.75000 
C          C       0.35868   0.48559   0.75000 
C          C       0.38439   0.46963   0.75000 
O          O       0.33114   0.47409   0.75000 
B          B       0.31414   0.50077   0.75000 
O          O       0.33130   0.52732   0.75000 
N          N       0.05122   0.44969   0.75000 
C          C       0.05961   0.47738   0.75000 
N          N       0.04149   0.50044   0.75000 
C          C       0.05924   0.52379   0.75000 
C          C       0.08958   0.51560   0.75000 
C          C       0.08977   0.48602   0.75000 
C          C       0.11550   0.47002   0.75000 
C          C       0.14114   0.48602   0.75000 
C          C       0.14101   0.51608   0.75000 
C          C       0.11516   0.53186   0.75000 
C          C       0.02262   0.55975   0.75000 
C          C       0.02975   0.61572   0.75000 
C          C       0.01358   0.64132   0.75000 
N          N       0.05035   0.55136   0.75000 
O          O       0.16866   0.47452   0.75000 
B          B       0.18566   0.50117   0.75000 
C          C       0.21946   0.50103   0.75000 
C          C       0.23488   0.52720   0.75000 
C          C       0.26490   0.47458   0.75000 
C          C       0.23472   0.47470   0.75000 
O          O       0.16848   0.52775   0.75000 
H          H       0.38448   0.55484   0.75000 
H          H       0.38423   0.44625   0.75000 
H          H       0.11516   0.55524   0.75000 
H          H       0.11578   0.44664   0.75000 
H          H       0.27612   0.45391   0.75000 
H          H       0.22335   0.45410   0.75000 
H          H       0.27641   0.54765   0.75000 
H          H       0.22366   0.54784   0.75000 
C          C       0.44063   0.97616   0.75000 
C          C       0.41030   0.98427   0.75000 
C          C       0.35891   0.98349   0.75000 
C          C       0.38482   0.96787   0.75000 
H          H       0.38493   0.94449   0.75000 
N          N       0.45832   0.99953   0.75000 
N          N       0.05001   0.94846   0.75000 
C          C       0.05907   0.97596   0.75000 
N          N       0.04147   0.99942   0.75000 
C          C       0.41000   0.01384   0.75000 
O          O       0.33098   0.02484   0.75000 
B          B       0.31416   0.99805   0.75000 
O          O       0.33153   0.97161   0.75000 
C          C       0.08946   0.98392   0.75000 
C          C       0.08983   0.01350   0.75000 
C          C       0.05972   0.02237   0.75000 
C          C       0.11565   0.02930   0.75000 
C          C       0.14089   0.98306   0.75000 
C          C       0.11494   0.96747   0.75000 
C          C       0.14120   0.01312   0.75000 
O          O       0.16831   0.97120   0.75000 
B          B       0.18564   0.99767   0.75000 
C          C       0.21947   0.99767   0.75000 
C          C       0.23473   0.02398   0.75000 
C          C       0.26490   0.02409   0.75000 
C          C       0.28035   0.99789   0.75000 
C          C       0.26511   0.97160   0.75000 
O          O       0.16880   0.02443   0.75000 
H          H       0.38383   0.05307   0.75000 
H          H       0.11605   0.05267   0.75000 
H          H       0.11481   0.94409   0.75000 
H          H       0.27611   0.04478   0.75000 
H          H       0.22338   0.04459   0.75000 
H          H       0.27649   0.95104   0.75000 
H          H       0.22369   0.95085   0.75000 
C          C       0.28032   0.50080   0.75000 
C          C       0.26507   0.52709   0.75000 
C          C       0.23490   0.97149   0.75000 
Zn         Zn      0.99993   0.50006   0.75000 
Zn         Zn      0.99992   0.00007   0.75000 
N          N       0.45830   0.50033   0.75000 
N          N       0.44914   0.55118   0.75000 
C          C       0.47680   0.55973   0.75000 
C          C       0.48528   0.58994   0.75000 
C          C       0.51487   0.58986   0.75000 
C          C       0.52324   0.55961   0.75000 
C          C       0.53105   0.61545   0.75000 
C          C       0.51521   0.64123   0.75000 
C          C       0.48514   0.64131   0.75000 
C          C       0.46919   0.61561   0.75000 
O          O       0.47361   0.66884   0.75000 
B          B       0.50029   0.68583   0.75000 
O          O       0.52687   0.66868   0.75000 
N          N       0.44954   0.94863   0.75000 
C          C       0.47725   0.94025   0.75000 
N          N       0.50031   0.95834   0.75000 
C          C       0.52368   0.94059   0.75000 
C          C       0.51548   0.91026   0.75000 
C          C       0.48589   0.91011   0.75000 
C          C       0.46986   0.88443   0.75000 
C          C       0.48583   0.85877   0.75000 
C          C       0.51590   0.85885   0.75000 
C          C       0.53172   0.88465   0.75000 
C          C       0.55962   0.97718   0.75000 
C          C       0.61563   0.97009   0.75000 
C          C       0.64121   0.98628   0.75000 
N          N       0.55125   0.94946   0.75000 
O          O       0.47428   0.83129   0.75000 
B          B       0.50091   0.81425   0.75000 
C          C       0.50069   0.78046   0.75000 
C          C       0.52684   0.76498   0.75000 
C          C       0.47414   0.73511   0.75000 
C          C       0.47432   0.76528   0.75000 
O          O       0.52753   0.83136   0.75000 
H          H       0.55443   0.61552   0.75000 
H          H       0.44581   0.61580   0.75000 
H          H       0.55511   0.88458   0.75000 
H          H       0.44647   0.88422   0.75000 
H          H       0.45345   0.72393   0.75000 
H          H       0.45374   0.77671   0.75000 
H          H       0.54720   0.72339   0.75000 
H          H       0.54752   0.77614   0.75000 
C          C       0.97619   0.55931   0.75000 
C          C       0.98430   0.58964   0.75000 
C          C       0.98351   0.64102   0.75000 
C          C       0.96789   0.61512   0.75000 
H          H       0.94451   0.61506   0.75000 
N          N       0.99958   0.54162   0.75000 
N          N       0.94833   0.94999   0.75000 
C          C       0.97583   0.94093   0.75000 
N          N       0.99930   0.95851   0.75000 
C          C       0.01389   0.58992   0.75000 
O          O       0.02487   0.66895   0.75000 
B          B       0.99805   0.68578   0.75000 
O          O       0.97162   0.66840   0.75000 
C          C       0.98381   0.91054   0.75000 
C          C       0.01339   0.91015   0.75000 
C          C       0.02225   0.94025   0.75000 
C          C       0.02919   0.88431   0.75000 
C          C       0.98292   0.85911   0.75000 
C          C       0.96734   0.88508   0.75000 
C          C       0.01299   0.85877   0.75000 
O          O       0.97104   0.83171   0.75000 
B          B       0.99752   0.81435   0.75000 
C          C       0.99755   0.78051   0.75000 
C          C       0.02388   0.76526   0.75000 
C          C       0.02402   0.73509   0.75000 
C          C       0.99783   0.71963   0.75000 
C          C       0.97151   0.73487   0.75000 
O          O       0.02430   0.83117   0.75000 
H          H       0.05313   0.61606   0.75000 
H          H       0.05257   0.88387   0.75000 
H          H       0.94396   0.88525   0.75000 
H          H       0.04472   0.72388   0.75000 
H          H       0.04448   0.77663   0.75000 
H          H       0.95095   0.72348   0.75000 
H          H       0.95072   0.77629   0.75000 
C          C       0.50033   0.71963   0.75000 
C          C       0.52666   0.73480   0.75000 
C          C       0.97137   0.76507   0.75000 
N          N       0.54145   0.50010   0.75000 
N          N       0.55058   0.44924   0.75000 
C          C       0.52291   0.44070   0.75000 
C          C       0.51442   0.41050   0.75000 
C          C       0.48483   0.41055   0.75000 
C          C       0.47649   0.44081   0.75000 
C          C       0.46865   0.38493   0.75000 
C          C       0.48452   0.35917   0.75000 
C          C       0.51459   0.35915   0.75000 
C          C       0.53051   0.38485   0.75000 
O          O       0.52617   0.33167   0.75000 
B          B       0.49954   0.31461   0.75000 
O          O       0.47292   0.33168   0.75000 
N          N       0.55024   0.05111   0.75000 
C          C       0.52253   0.05949   0.75000 
N          N       0.49947   0.04140   0.75000 
C          C       0.47611   0.05916   0.75000 
C          C       0.48431   0.08949   0.75000 
C          C       0.51390   0.08962   0.75000 
C          C       0.52995   0.11526   0.75000 
C          C       0.51400   0.14093   0.75000 
C          C       0.48393   0.14091   0.75000 
C          C       0.46808   0.11511   0.75000 
C          C       0.44017   0.02257   0.75000 
C          C       0.38419   0.02970   0.75000 
C          C       0.35860   0.01354   0.75000 
N          N       0.44854   0.05029   0.75000 
O          O       0.52561   0.16837   0.75000 
B          B       0.49901   0.18548   0.75000 
C          C       0.49946   0.21927   0.75000 
C          C       0.47348   0.23506   0.75000 
C          C       0.52610   0.26580   0.75000 
C          C       0.52595   0.23406   0.75000 
O          O       0.47235   0.16844   0.75000 
H          H       0.44526   0.38483   0.75000 
H          H       0.55389   0.38469   0.75000 
H          H       0.44470   0.11518   0.75000 
H          H       0.55333   0.11545   0.75000 
H          H       0.54675   0.27706   0.75000 
H          H       0.54650   0.22259   0.75000 
H          H       0.45301   0.27654   0.75000 
H          H       0.45274   0.22400   0.75000 
C          C       0.02368   0.44079   0.75000 
C          C       0.01558   0.41048   0.75000 
C          C       0.01641   0.35909   0.75000 
C          C       0.03201   0.38501   0.75000 
H          H       0.05540   0.38514   0.75000 
N          N       0.00029   0.45849   0.75000 
N          N       0.05151   0.05012   0.75000 
C          C       0.02401   0.05921   0.75000 
N          N       0.00053   0.04163   0.75000 
C          C       0.98599   0.41017   0.75000 
O          O       0.97508   0.33114   0.75000 
B          B       0.00191   0.31433   0.75000 
O          O       0.02832   0.33172   0.75000 
C          C       0.01605   0.08960   0.75000 
C          C       0.98646   0.08999   0.75000 
C          C       0.97759   0.05988   0.75000 
C          C       0.97067   0.11584   0.75000 
C          C       0.01694   0.14102   0.75000 
C          C       0.03252   0.11506   0.75000 
C          C       0.98688   0.14137   0.75000 
O          O       0.02883   0.16842   0.75000 
B          B       0.00236   0.18579   0.75000 
C          C       0.00236   0.21962   0.75000 
C          C       0.97603   0.23488   0.75000 
C          C       0.97590   0.26504   0.75000 
C          C       0.00210   0.28050   0.75000 
C          C       0.02841   0.26525   0.75000 
O          O       0.97558   0.16897   0.75000 
H          H       0.94678   0.38397   0.75000 
H          H       0.94729   0.11628   0.75000 
H          H       0.05591   0.11490   0.75000 
H          H       0.95520   0.27623   0.75000 
H          H       0.95542   0.22352   0.75000 
H          H       0.04898   0.27662   0.75000 
H          H       0.04920   0.22383   0.75000 
C          C       0.49976   0.28083   0.75000 
C          C       0.47363   0.26529   0.75000 
C          C       0.02855   0.23505   0.75000 
Zn         Zn      0.49989   0.99987   0.75000 
Zn         Zn      0.49987   0.50021   0.75000 
