data_HB-COF-AA
_audit_creation_date              0000-00-00
_audit_creation_method            'LanYouShi'
_symmetry_space_group_name_H-M    'P1'
_cell_length_a                    70.1699982
_cell_length_b                    30.1000004
_cell_length_c                    3.5100000
_cell_angle_alpha                 90.0000000
_cell_angle_beta                  90.0000000
_cell_angle_gamma                 90.0000000
loop_
_atom_site_label
_atom_site_type_symbol
_atom_site_fract_x
_atom_site_fract_y
_atom_site_fract_z
_atom_site_U_iso_or_equiv
_atom_site_adp_type
_atom_site_occupancy
        C1          C  0.3628400  0.2503100  0.5000000    0.00000       Uiso       1.00
        C2          C  0.3822900  0.2385600  0.5000000    0.00000       Uiso       1.00
        C3          C  0.3966500  0.2712200  0.5000000    0.00000       Uiso       1.00
        C4          C  0.3920800  0.3168400  0.5000000    0.00000       Uiso       1.00
        C5          C  0.3726100  0.3276100  0.5000000    0.00000       Uiso       1.00
        C6          C  0.3587000  0.2959400  0.5000000    0.00000       Uiso       1.00
        C7          C  0.4074700  0.3507600  0.5000000    0.00000       Uiso       1.00
        C8          C  0.4266700  0.3375100  0.5000000    0.00000       Uiso       1.00
        C9          C  0.4412800  0.3690200  0.5000000    0.00000       Uiso       1.00
       C10          C  0.4369100  0.4144100  0.5000000    0.00000       Uiso       1.00
       C11          C  0.4178800  0.4279300  0.5000000    0.00000       Uiso       1.00
       C12          C  0.4032900  0.3963600  0.5000000    0.00000       Uiso       1.00
       C13          C  0.3479100  0.2152800  0.5000000    0.00000       Uiso       1.00
       C14          C  0.3531200  0.1702200  0.5000000    0.00000       Uiso       1.00
       C15          C  0.3392400  0.1369400  0.5000000    0.00000       Uiso       1.00
       C16          C  0.3199300  0.1481600  0.5000000    0.00000       Uiso       1.00
       C17          C  0.3145700  0.1929600  0.5000000    0.00000       Uiso       1.00
       C18          C  0.3284600  0.2261700  0.5000000    0.00000       Uiso       1.00
        N1          N  0.3406300  0.3170500  0.5000000    0.00000       Uiso       1.00
       C19          C  0.3450500  0.3609800  0.5000000    0.00000       Uiso       1.00
        N2          N  0.3640000  0.3702200  0.5000000    0.00000       Uiso       1.00
       C20          C  0.3304100  0.3959100  0.5000000    0.00000       Uiso       1.00
       C21          C  0.3110400  0.3846200  0.5000000    0.00000       Uiso       1.00
       C22          C  0.2971300  0.4178100  0.5000000    0.00000       Uiso       1.00
       C23          C  0.3024700  0.4626700  0.5000000    0.00000       Uiso       1.00
       C24          C  0.3217900  0.4740000  0.5000000    0.00000       Uiso       1.00
       C25          C  0.3357000  0.4408000  0.5000000    0.00000       Uiso       1.00
       C26          C  0.2731800  0.0877400  0.5000000    0.00000       Uiso       1.00
       C27          C  0.4519400  0.4482000  0.5000000    0.00000       Uiso       1.00
        N3          N  0.4698100  0.4373300  0.5000000    0.00000       Uiso       1.00
       C28          C  0.4849000  0.4693300  0.5000000    0.00000       Uiso       1.00
       C29          C  0.4812000  0.5151900  0.5000000    0.00000       Uiso       1.00
       C30          C  0.4962400  0.5456000  0.5000000    0.00000       Uiso       1.00
       C31          C  0.2540300  0.1004900  0.5000000    0.00000       Uiso       1.00
       C32          C  0.2396400  0.0684000  0.5000000    0.00000       Uiso       1.00
       C33          C  0.2443000  0.0230100  0.5000000    0.00000       Uiso       1.00
       C34          C  0.2634500  0.0102600  0.5000000    0.00000       Uiso       1.00
       C35          C  0.2778400  0.0423500  0.5000000    0.00000       Uiso       1.00
       C36          C  0.3056600  0.1126400  0.5000000    0.00000       Uiso       1.00
        N4          N  0.2875700  0.1214200  0.5000000    0.00000       Uiso       1.00
        N5          N  0.2701000  0.4893300  0.5000000    0.00000       Uiso       1.00
       C37          C  0.2881800  0.4981500  0.5000000    0.00000       Uiso       1.00
        H1          H  0.3863100  0.2018700  0.5000000    0.00000       Uiso       1.00
        H2          H  0.4122900  0.2609800  0.5000000    0.00000       Uiso       1.00
        H3          H  0.4302600  0.3005800  0.5000000    0.00000       Uiso       1.00
        H4          H  0.4567900  0.3578100  0.5000000    0.00000       Uiso       1.00
        H5          H  0.4142100  0.4648200  0.5000000    0.00000       Uiso       1.00
        H6          H  0.3877700  0.4075100  0.5000000    0.00000       Uiso       1.00
        H7          H  0.3688700  0.1609400  0.5000000    0.00000       Uiso       1.00
        H8          H  0.3436700  0.1005000  0.5000000    0.00000       Uiso       1.00
        H9          H  0.2988400  0.2023900  0.5000000    0.00000       Uiso       1.00
       H10          H  0.3240600  0.2626200  0.5000000    0.00000       Uiso       1.00
       H11          H  0.3254900  0.3063900  0.5000000    0.00000       Uiso       1.00
       H12          H  0.3066500  0.3481500  0.5000000    0.00000       Uiso       1.00
       H13          H  0.2813900  0.4084400  0.5000000    0.00000       Uiso       1.00
       H14          H  0.3262300  0.5104300  0.5000000    0.00000       Uiso       1.00
       H15          H  0.3514400  0.4501700  0.5000000    0.00000       Uiso       1.00
       H16          H  0.4480200  0.4849500  0.5000000    0.00000       Uiso       1.00
       H17          H  0.4658700  0.5277500  0.5000000    0.00000       Uiso       1.00
       H18          H  0.4931600  0.5827800  0.5000000    0.00000       Uiso       1.00
       H19          H  0.2501700  0.1372700  0.5000000    0.00000       Uiso       1.00
       H20          H  0.2240500  0.0790000  0.5000000    0.00000       Uiso       1.00
       H21          H  0.2674000  0.9735300  0.5000000    0.00000       Uiso       1.00
       H22          H  0.2934300  0.0317500  0.5000000    0.00000       Uiso       1.00
       H23          H  0.3103700  0.0764000  0.5000000    0.00000       Uiso       1.00
       H24          H  0.2928700  0.5344000  0.5000000    0.00000       Uiso       1.00
       C38          C  0.6371601  0.7496899  0.5000000    0.00000       Uiso       1.00
       C39          C  0.6177101  0.7614400  0.5000000    0.00000       Uiso       1.00
       C40          C  0.6033500  0.7287800  0.5000000    0.00000       Uiso       1.00
       C41          C  0.6079200  0.6831600  0.5000000    0.00000       Uiso       1.00
       C42          C  0.6273900  0.6723900  0.5000000    0.00000       Uiso       1.00
       C43          C  0.6413000  0.7040600  0.5000000    0.00000       Uiso       1.00
       C44          C  0.5925300  0.6492400  0.5000000    0.00000       Uiso       1.00
       C45          C  0.5733300  0.6624900  0.5000000    0.00000       Uiso       1.00
       C46          C  0.5587201  0.6309800  0.5000000    0.00000       Uiso       1.00
       C47          C  0.5630900  0.5855900  0.5000000    0.00000       Uiso       1.00
       C48          C  0.5821200  0.5720700  0.5000000    0.00000       Uiso       1.00
       C49          C  0.5967100  0.6036400  0.5000000    0.00000       Uiso       1.00
       C50          C  0.6520900  0.7847199  0.5000000    0.00000       Uiso       1.00
       C51          C  0.6468800  0.8297800  0.5000000    0.00000       Uiso       1.00
       C52          C  0.6607600  0.8630600  0.5000000    0.00000       Uiso       1.00
       C53          C  0.6800700  0.8518400  0.5000000    0.00000       Uiso       1.00
       C54          C  0.6854300  0.8070400  0.5000000    0.00000       Uiso       1.00
       C55          C  0.6715400  0.7738299  0.5000000    0.00000       Uiso       1.00
        N6          N  0.6593700  0.6829500  0.5000000    0.00000       Uiso       1.00
       C56          C  0.6549500  0.6390200  0.5000000    0.00000       Uiso       1.00
        N7          N  0.6360000  0.6297800  0.5000000    0.00000       Uiso       1.00
       C57          C  0.6695900  0.6040900  0.5000000    0.00000       Uiso       1.00
       C58          C  0.6889600  0.6153800  0.5000000    0.00000       Uiso       1.00
       C59          C  0.7028700  0.5821900  0.5000000    0.00000       Uiso       1.00
       C60          C  0.6975300  0.5373300  0.5000000    0.00000       Uiso       1.00
       C61          C  0.6782100  0.5260000  0.5000000    0.00000       Uiso       1.00
       C62          C  0.6643000  0.5592000  0.5000000    0.00000       Uiso       1.00
       C63          C  0.7268201  0.9122600  0.5000000    0.00000       Uiso       1.00
       C64          C  0.5480600  0.5518000  0.5000000    0.00000       Uiso       1.00
        N8          N  0.5301901  0.5626700  0.5000000    0.00000       Uiso       1.00
       C65          C  0.5151000  0.5306700  0.5000000    0.00000       Uiso       1.00
       C66          C  0.5188000  0.4848100  0.5000000    0.00000       Uiso       1.00
       C67          C  0.5037600  0.4544000  0.5000000    0.00000       Uiso       1.00
       C68          C  0.7459700  0.8995100  0.5000000    0.00000       Uiso       1.00
       C69          C  0.7603600  0.9316000  0.5000000    0.00000       Uiso       1.00
       C70          C  0.7557001  0.9769900  0.5000000    0.00000       Uiso       1.00
       C71          C  0.7365500  0.9897400  0.5000000    0.00000       Uiso       1.00
       C72          C  0.7221600  0.9576500  0.5000000    0.00000       Uiso       1.00
       C73          C  0.6943400  0.8873600  0.5000000    0.00000       Uiso       1.00
        N9          N  0.7124301  0.8785800  0.5000000    0.00000       Uiso       1.00
       N10          N  0.7299000  0.5106700  0.5000000    0.00000       Uiso       1.00
       C74          C  0.7118200  0.5018500  0.5000000    0.00000       Uiso       1.00
       H25          H  0.6136900  0.7981300  0.5000000    0.00000       Uiso       1.00
       H26          H  0.5877100  0.7390200  0.5000000    0.00000       Uiso       1.00
       H27          H  0.5697401  0.6994200  0.5000000    0.00000       Uiso       1.00
       H28          H  0.5432100  0.6421900  0.5000000    0.00000       Uiso       1.00
       H29          H  0.5857900  0.5351800  0.5000000    0.00000       Uiso       1.00
       H30          H  0.6122300  0.5924900  0.5000000    0.00000       Uiso       1.00
       H31          H  0.6311300  0.8390600  0.5000000    0.00000       Uiso       1.00
       H32          H  0.6563300  0.8995000  0.5000000    0.00000       Uiso       1.00
       H33          H  0.7011600  0.7976100  0.5000000    0.00000       Uiso       1.00
       H34          H  0.6759400  0.7373800  0.5000000    0.00000       Uiso       1.00
       H35          H  0.6745101  0.6936100  0.5000000    0.00000       Uiso       1.00
       H36          H  0.6933500  0.6518500  0.5000000    0.00000       Uiso       1.00
       H37          H  0.7186100  0.5915600  0.5000000    0.00000       Uiso       1.00
       H38          H  0.6737700  0.4895700  0.5000000    0.00000       Uiso       1.00
       H39          H  0.6485600  0.5498300  0.5000000    0.00000       Uiso       1.00
       H40          H  0.5519800  0.5150500  0.5000000    0.00000       Uiso       1.00
       H41          H  0.5341300  0.4722500  0.5000000    0.00000       Uiso       1.00
       H42          H  0.5068401  0.4172200  0.5000000    0.00000       Uiso       1.00
       H43          H  0.7498300  0.8627300  0.5000000    0.00000       Uiso       1.00
       H44          H  0.7759500  0.9209999  0.5000000    0.00000       Uiso       1.00
       H45          H  0.7326000  0.0264700  0.5000000    0.00000       Uiso       1.00
       H46          H  0.7065700  0.9682500  0.5000000    0.00000       Uiso       1.00
       H47          H  0.6896300  0.9236000  0.5000000    0.00000       Uiso       1.00
       H48          H  0.7071300  0.4656000  0.5000000    0.00000       Uiso       1.00
       C75          C  0.1371600  0.7503100  0.5000000    0.00000       Uiso       1.00
       C76          C  0.1177100  0.7385600  0.5000000    0.00000       Uiso       1.00
       C77          C  0.1033500  0.7712200  0.5000000    0.00000       Uiso       1.00
       C78          C  0.1079200  0.8168400  0.5000000    0.00000       Uiso       1.00
       C79          C  0.1273900  0.8276100  0.5000000    0.00000       Uiso       1.00
       C80          C  0.1413000  0.7959400  0.5000000    0.00000       Uiso       1.00
       C81          C  0.0925300  0.8507600  0.5000000    0.00000       Uiso       1.00
       C82          C  0.0733300  0.8375100  0.5000000    0.00000       Uiso       1.00
       C83          C  0.0587200  0.8690200  0.5000000    0.00000       Uiso       1.00
       C84          C  0.0630900  0.9144100  0.5000000    0.00000       Uiso       1.00
       C85          C  0.0821200  0.9279300  0.5000000    0.00000       Uiso       1.00
       C86          C  0.0967100  0.8963600  0.5000000    0.00000       Uiso       1.00
       C87          C  0.1520900  0.7152800  0.5000000    0.00000       Uiso       1.00
       C88          C  0.1468800  0.6702200  0.5000000    0.00000       Uiso       1.00
       C89          C  0.1607600  0.6369400  0.5000000    0.00000       Uiso       1.00
       C90          C  0.1800700  0.6481600  0.5000000    0.00000       Uiso       1.00
       C91          C  0.1854300  0.6929600  0.5000000    0.00000       Uiso       1.00
       C92          C  0.1715400  0.7261700  0.5000000    0.00000       Uiso       1.00
       N11          N  0.1593700  0.8170500  0.5000000    0.00000       Uiso       1.00
       C93          C  0.1549500  0.8609800  0.5000000    0.00000       Uiso       1.00
       N12          N  0.1360000  0.8702200  0.5000000    0.00000       Uiso       1.00
       C94          C  0.1695900  0.8959100  0.5000000    0.00000       Uiso       1.00
       C95          C  0.1889600  0.8846200  0.5000000    0.00000       Uiso       1.00
       C96          C  0.2028700  0.9178100  0.5000000    0.00000       Uiso       1.00
       C97          C  0.1975300  0.9626700  0.5000000    0.00000       Uiso       1.00
       C98          C  0.1782100  0.9740000  0.5000000    0.00000       Uiso       1.00
       C99          C  0.1643000  0.9408000  0.5000000    0.00000       Uiso       1.00
      C100          C  0.2268200  0.5877399  0.5000000    0.00000       Uiso       1.00
      C101          C  0.0480600  0.9482000  0.5000000    0.00000       Uiso       1.00
       N13          N  0.0301900  0.9373299  0.5000000    0.00000       Uiso       1.00
      C102          C  0.0151000  0.9693300  0.5000000    0.00000       Uiso       1.00
      C103          C  0.0188000  0.0151900  0.5000000    0.00000       Uiso       1.00
      C104          C  0.0037600  0.0456000  0.5000000    0.00000       Uiso       1.00
      C105          C  0.2459700  0.6004900  0.5000000    0.00000       Uiso       1.00
      C106          C  0.2603600  0.5684000  0.5000000    0.00000       Uiso       1.00
      C107          C  0.2557000  0.5230100  0.5000000    0.00000       Uiso       1.00
      C108          C  0.2365500  0.5102600  0.5000000    0.00000       Uiso       1.00
      C109          C  0.2221600  0.5423500  0.5000000    0.00000       Uiso       1.00
      C110          C  0.1943400  0.6126400  0.5000000    0.00000       Uiso       1.00
       N14          N  0.2124300  0.6214200  0.5000000    0.00000       Uiso       1.00
       N15          N  0.2299000  0.9893300  0.5000000    0.00000       Uiso       1.00
      C111          C  0.2118200  0.9981500  0.5000000    0.00000       Uiso       1.00
       H49          H  0.1136900  0.7018700  0.5000000    0.00000       Uiso       1.00
       H50          H  0.0877100  0.7609800  0.5000000    0.00000       Uiso       1.00
       H51          H  0.0697400  0.8005800  0.5000000    0.00000       Uiso       1.00
       H52          H  0.0432100  0.8578100  0.5000000    0.00000       Uiso       1.00
       H53          H  0.0857900  0.9648200  0.5000000    0.00000       Uiso       1.00
       H54          H  0.1122300  0.9075100  0.5000000    0.00000       Uiso       1.00
       H55          H  0.1311300  0.6609400  0.5000000    0.00000       Uiso       1.00
       H56          H  0.1563300  0.6005000  0.5000000    0.00000       Uiso       1.00
       H57          H  0.2011600  0.7023900  0.5000000    0.00000       Uiso       1.00
       H58          H  0.1759400  0.7626200  0.5000000    0.00000       Uiso       1.00
       H59          H  0.1745100  0.8063900  0.5000000    0.00000       Uiso       1.00
       H60          H  0.1933500  0.8481500  0.5000000    0.00000       Uiso       1.00
       H61          H  0.2186100  0.9084400  0.5000000    0.00000       Uiso       1.00
       H62          H  0.1737700  0.0104300  0.5000000    0.00000       Uiso       1.00
       H63          H  0.1485600  0.9501700  0.5000000    0.00000       Uiso       1.00
       H64          H  0.0519800  0.9849500  0.5000000    0.00000       Uiso       1.00
       H65          H  0.0341300  0.0277500  0.5000000    0.00000       Uiso       1.00
       H66          H  0.0068400  0.0827800  0.5000000    0.00000       Uiso       1.00
       H67          H  0.2498300  0.6372700  0.5000000    0.00000       Uiso       1.00
       H68          H  0.2759500  0.5790000  0.5000000    0.00000       Uiso       1.00
       H69          H  0.2326000  0.4735300  0.5000000    0.00000       Uiso       1.00
       H70          H  0.2065700  0.5317500  0.5000000    0.00000       Uiso       1.00
       H71          H  0.1896300  0.5764000  0.5000000    0.00000       Uiso       1.00
       H72          H  0.2071300  0.0344000  0.5000000    0.00000       Uiso       1.00
      C112          C  0.8628400  0.2496900  0.5000000    0.00000       Uiso       1.00
      C113          C  0.8822900  0.2614400  0.5000000    0.00000       Uiso       1.00
      C114          C  0.8966500  0.2287800  0.5000000    0.00000       Uiso       1.00
      C115          C  0.8920800  0.1831600  0.5000000    0.00000       Uiso       1.00
      C116          C  0.8726100  0.1723900  0.5000000    0.00000       Uiso       1.00
      C117          C  0.8587000  0.2040600  0.5000000    0.00000       Uiso       1.00
      C118          C  0.9074700  0.1492400  0.5000000    0.00000       Uiso       1.00
      C119          C  0.9266701  0.1624900  0.5000000    0.00000       Uiso       1.00
      C120          C  0.9412799  0.1309800  0.5000000    0.00000       Uiso       1.00
      C121          C  0.9369100  0.0855900  0.5000000    0.00000       Uiso       1.00
      C122          C  0.9178800  0.0720700  0.5000000    0.00000       Uiso       1.00
      C123          C  0.9032900  0.1036400  0.5000000    0.00000       Uiso       1.00
      C124          C  0.8479100  0.2847200  0.5000000    0.00000       Uiso       1.00
      C125          C  0.8531200  0.3297800  0.5000000    0.00000       Uiso       1.00
      C126          C  0.8392400  0.3630600  0.5000000    0.00000       Uiso       1.00
      C127          C  0.8199300  0.3518400  0.5000000    0.00000       Uiso       1.00
      C128          C  0.8145701  0.3070400  0.5000000    0.00000       Uiso       1.00
      C129          C  0.8284600  0.2738300  0.5000000    0.00000       Uiso       1.00
       N16          N  0.8406300  0.1829500  0.5000000    0.00000       Uiso       1.00
      C130          C  0.8450500  0.1390200  0.5000000    0.00000       Uiso       1.00
       N17          N  0.8640000  0.1297800  0.5000000    0.00000       Uiso       1.00
      C131          C  0.8304101  0.1040900  0.5000000    0.00000       Uiso       1.00
      C132          C  0.8110400  0.1153800  0.5000000    0.00000       Uiso       1.00
      C133          C  0.7971300  0.0821900  0.5000000    0.00000       Uiso       1.00
      C134          C  0.8024700  0.0373300  0.5000000    0.00000       Uiso       1.00
      C135          C  0.8217900  0.0260000  0.5000000    0.00000       Uiso       1.00
      C136          C  0.8357000  0.0592000  0.5000000    0.00000       Uiso       1.00
      C137          C  0.7731800  0.4122600  0.5000000    0.00000       Uiso       1.00
      C138          C  0.9519401  0.0518000  0.5000000    0.00000       Uiso       1.00
       N18          N  0.9698100  0.0626700  0.5000000    0.00000       Uiso       1.00
      C139          C  0.9849001  0.0306700  0.5000000    0.00000       Uiso       1.00
      C140          C  0.9812001  0.9848099  0.5000000    0.00000       Uiso       1.00
      C141          C  0.9962400  0.9544000  0.5000000    0.00000       Uiso       1.00
      C142          C  0.7540300  0.3995100  0.5000000    0.00000       Uiso       1.00
      C143          C  0.7396401  0.4316000  0.5000000    0.00000       Uiso       1.00
      C144          C  0.7443000  0.4769900  0.5000000    0.00000       Uiso       1.00
      C145          C  0.7634500  0.4897400  0.5000000    0.00000       Uiso       1.00
      C146          C  0.7778400  0.4576500  0.5000000    0.00000       Uiso       1.00
      C147          C  0.8056600  0.3873600  0.5000000    0.00000       Uiso       1.00
       N19          N  0.7875700  0.3785800  0.5000000    0.00000       Uiso       1.00
       N20          N  0.7701001  0.0106700  0.5000000    0.00000       Uiso       1.00
      C148          C  0.7881801  0.0018500  0.5000000    0.00000       Uiso       1.00
       H73          H  0.8863100  0.2981300  0.5000000    0.00000       Uiso       1.00
       H74          H  0.9122900  0.2390200  0.5000000    0.00000       Uiso       1.00
       H75          H  0.9302600  0.1994200  0.5000000    0.00000       Uiso       1.00
       H76          H  0.9567900  0.1421900  0.5000000    0.00000       Uiso       1.00
       H77          H  0.9142100  0.0351800  0.5000000    0.00000       Uiso       1.00
       H78          H  0.8877701  0.0924900  0.5000000    0.00000       Uiso       1.00
       H79          H  0.8688700  0.3390600  0.5000000    0.00000       Uiso       1.00
       H80          H  0.8436700  0.3995000  0.5000000    0.00000       Uiso       1.00
       H81          H  0.7988400  0.2976100  0.5000000    0.00000       Uiso       1.00
       H82          H  0.8240600  0.2373800  0.5000000    0.00000       Uiso       1.00
       H83          H  0.8254900  0.1936100  0.5000000    0.00000       Uiso       1.00
       H84          H  0.8066500  0.1518500  0.5000000    0.00000       Uiso       1.00
       H85          H  0.7813900  0.0915600  0.5000000    0.00000       Uiso       1.00
       H86          H  0.8262300  0.9895700  0.5000000    0.00000       Uiso       1.00
       H87          H  0.8514400  0.0498300  0.5000000    0.00000       Uiso       1.00
       H88          H  0.9480200  0.0150500  0.5000000    0.00000       Uiso       1.00
       H89          H  0.9658701  0.9722500  0.5000000    0.00000       Uiso       1.00
       H90          H  0.9931601  0.9172200  0.5000000    0.00000       Uiso       1.00
       H91          H  0.7501700  0.3627300  0.5000000    0.00000       Uiso       1.00
       H92          H  0.7240500  0.4210000  0.5000000    0.00000       Uiso       1.00
       H93          H  0.7674000  0.5264700  0.5000000    0.00000       Uiso       1.00
       H94          H  0.7934300  0.4682500  0.5000000    0.00000       Uiso       1.00
       H95          H  0.8103700  0.4236000  0.5000000    0.00000       Uiso       1.00
       H96          H  0.7928700  0.9656000  0.5000000    0.00000       Uiso       1.00
