data_HBC-COF-real
_audit_creation_date              0000-00-00
_audit_creation_method            'LanYouShi'
_symmetry_space_group_name_H-M    'P1'
_cell_length_a                    30.1777000
_cell_length_b                    30.2042999
_cell_length_c                    3.7340000
_cell_angle_alpha                 107.5979996
_cell_angle_beta                  80.6733017
_cell_angle_gamma                 120.0753021
loop_
_atom_site_label
_atom_site_type_symbol
_atom_site_fract_x
_atom_site_fract_y
_atom_site_fract_z
_atom_site_U_iso_or_equiv
_atom_site_adp_type
_atom_site_occupancy
        C1          C  0.0467117  0.9999920  0.0169680    0.00000       Uiso       1.00
        C2          C  0.0004670  0.0463256 -0.0249458    0.00000       Uiso       1.00
        C3          C  0.9522343  0.9538544  0.0211357    0.00000       Uiso       1.00
        C4          C  0.9528865  0.0002965 -0.0040339    0.00000       Uiso       1.00
        C5          C  0.9991483  0.9537899  0.0334797    0.00000       Uiso       1.00
        C6          C  0.0473650  0.0461630 -0.0151923    0.00000       Uiso       1.00
        C7          C  0.0935594  0.9996738  0.0266331    0.00000       Uiso       1.00
        C8          C  0.0011515  0.0927484 -0.0510241    0.00000       Uiso       1.00
        C9          C  0.9046509  0.9074707  0.0341607    0.00000       Uiso       1.00
       C10          C  0.9059778  0.0007124 -0.0085188    0.00000       Uiso       1.00
       C11          C  0.9985250  0.9072984  0.0574146    0.00000       Uiso       1.00
       C12          C  0.0948767  0.0925135 -0.0310109    0.00000       Uiso       1.00
       C13          C  0.0453053  0.9075180  0.0829918    0.00000       Uiso       1.00
       C14          C  0.0956089  0.1387988 -0.0640189    0.00000       Uiso       1.00
       C15          C  0.8582989  0.9546162  0.0125865    0.00000       Uiso       1.00
       C16          C  0.9542892  0.0939565 -0.0375720    0.00000       Uiso       1.00
       C17          C  0.9040279  0.8608605  0.0571668    0.00000       Uiso       1.00
       C18          C  0.1411065  0.0455868 -0.0005346    0.00000       Uiso       1.00
       C19          C  0.0929847  0.9534119  0.0587799    0.00000       Uiso       1.00
       C20          C  0.0486175  0.1382897 -0.0859997    0.00000       Uiso       1.00
       C21          C  0.8576228  0.9074814  0.0223828    0.00000       Uiso       1.00
       C22          C  0.9066720  0.0473342 -0.0324106    0.00000       Uiso       1.00
       C23          C  0.9509591  0.8601460  0.0509420    0.00000       Uiso       1.00
       C24          C  0.1417586  0.0927734 -0.0086169    0.00000       Uiso       1.00
       C25          C  0.0422165  0.8607293  0.1240334    0.00000       Uiso       1.00
       C26          C  0.1438640  0.1849110 -0.0601924    0.00000       Uiso       1.00
       C27          C  0.8126257  0.9578820  0.0292539    0.00000       Uiso       1.00
       C28          C  0.9570390  0.1429387 -0.0184891    0.00000       Uiso       1.00
       C29          C  0.8559000  0.8164474  0.0924306    0.00000       Uiso       1.00
       C30          C  0.1868022  0.0421653 -0.0265437    0.00000       Uiso       1.00
       C31          C  0.1879914  0.9977357  0.0054346    0.00000       Uiso       1.00
       C32          C  0.0024569  0.1877083 -0.0761630    0.00000       Uiso       1.00
       C33          C  0.8090269  0.8137361  0.0562098    0.00000       Uiso       1.00
       C34          C  0.8116563  0.0019957 -0.0121942    0.00000       Uiso       1.00
       C35          C  0.9969380  0.8118195  0.0721889    0.00000       Uiso       1.00
       C36          C  0.1904730  0.1874539 -0.0177917    0.00000       Uiso       1.00
       C37          C  0.1407190  0.9544004  0.0529224    0.00000       Uiso       1.00
       C38          C  0.0469297  0.1823466 -0.1341960    0.00000       Uiso       1.00
       C39          C  0.8112418  0.8594036  0.0144969    0.00000       Uiso       1.00
       C40          C  0.8591278  0.0452242 -0.0573532    0.00000       Uiso       1.00
       C41          C  0.9522602  0.8130025  0.0266354    0.00000       Uiso       1.00
       C42          C  0.1880754  0.1412052  0.0130317    0.00000       Uiso       1.00
        H1          H  0.1466306  0.2187286 -0.0848542    0.00000       Uiso       1.00
        H2          H  0.7782055  0.9280244  0.0785460    0.00000       Uiso       1.00
        H3          H  0.0734807  0.8610239  0.1931620    0.00000       Uiso       1.00
        H4          H  0.8536566  0.7846884  0.1520651    0.00000       Uiso       1.00
        H5          H  0.2210243  0.0719959 -0.0801023    0.00000       Uiso       1.00
        H6          H  0.9252822  0.1472905  0.0469807    0.00000       Uiso       1.00
        H7          H  0.2218526  0.1446328  0.0627996    0.00000       Uiso       1.00
        H8          H  0.8577412  0.0752568 -0.1158291    0.00000       Uiso       1.00
        H9          H  0.9199507  0.7775539 -0.0343237    0.00000       Uiso       1.00
       H10          H  0.7772108  0.8559160 -0.0283273    0.00000       Uiso       1.00
       H11          H  0.1426414  0.9230493  0.0806184    0.00000       Uiso       1.00
       H12          H  0.0787248  0.2122148 -0.2143221    0.00000       Uiso       1.00
       C43          C  0.0035258  0.2357953 -0.0687762    0.00000       Uiso       1.00
       C44          C  0.7616926  0.7670354  0.0605186    0.00000       Uiso       1.00
       C45          C  0.2349108  0.9968487 -0.0111471    0.00000       Uiso       1.00
       C46          C  0.9964190  0.7637994  0.0582918    0.00000       Uiso       1.00
       C47          C  0.2379253  0.2345698 -0.0047553    0.00000       Uiso       1.00
       C48          C  0.7649145  0.0028019 -0.0082364    0.00000       Uiso       1.00
       C49          C  0.0056676  0.3330435 -0.0424639    0.00000       Uiso       1.00
       C50          C  0.6664119  0.6727712  0.0682950    0.00000       Uiso       1.00
       C51          C  0.3294155  0.9951231 -0.0382462    0.00000       Uiso       1.00
       C52          C  0.9949155  0.6663769  0.0152710    0.00000       Uiso       1.00
       C53          C  0.3335351  0.3293097  0.0155916    0.00000       Uiso       1.00
       C54          C  0.6708294  0.0046682 -0.0003329    0.00000       Uiso       1.00
       C55          C  0.0484289  0.3334408  0.0652080    0.00000       Uiso       1.00
       C56          C  0.6715732  0.7229197  0.2624789    0.00000       Uiso       1.00
       C57          C  0.2862734  0.9509779 -0.2330063    0.00000       Uiso       1.00
       C58          C  0.9522764  0.6737733  0.1541671    0.00000       Uiso       1.00
       C59          C  0.3284703  0.2797198 -0.1940298    0.00000       Uiso       1.00
       C60          C  0.7139274  0.0492529  0.1916249    0.00000       Uiso       1.00
       C61          C  0.0472134  0.2859042  0.0564174    0.00000       Uiso       1.00
       C62          C  0.7183653  0.7693306  0.2588662    0.00000       Uiso       1.00
       C63          C  0.2397745  0.9517614 -0.2210139    0.00000       Uiso       1.00
       C64          C  0.9531428  0.7216147  0.1783651    0.00000       Uiso       1.00
       C65          C  0.2814865  0.2330723 -0.2046502    0.00000       Uiso       1.00
       C66          C  0.7602226  0.0484156  0.1887667    0.00000       Uiso       1.00
       C67          C  0.7560468  0.7163985 -0.1365656    0.00000       Uiso       1.00
       C68          C  0.2786804  0.0412713  0.1811308    0.00000       Uiso       1.00
       C69          C  0.9608287  0.2362470 -0.1781981    0.00000       Uiso       1.00
       C70          C  0.2434818  0.2846097  0.2086596    0.00000       Uiso       1.00
       C71          C  0.7211841  0.9579642 -0.1980492    0.00000       Uiso       1.00
       C72          C  0.0388843  0.7553307 -0.0857740    0.00000       Uiso       1.00
       C73          C  0.7092409  0.6699798 -0.1320412    0.00000       Uiso       1.00
       C74          C  0.3251574  0.0405003  0.1678730    0.00000       Uiso       1.00
       C75          C  0.9616366  0.2837804 -0.1632575    0.00000       Uiso       1.00
       C76          C  0.2904896  0.3313108  0.2178652    0.00000       Uiso       1.00
       C77          C  0.6749176  0.9588245 -0.1945804    0.00000       Uiso       1.00
       C78          C  0.0384273  0.7078317 -0.1041038    0.00000       Uiso       1.00
       H13          H  0.9283569  0.2017099 -0.2756071    0.00000       Uiso       1.00
       H14          H  0.7859687  0.7128193 -0.2896389    0.00000       Uiso       1.00
       H15          H  0.2770787  0.0747107  0.3369187    0.00000       Uiso       1.00
       H16          H  0.0707196  0.7834358 -0.1868076    0.00000       Uiso       1.00
       H17          H  0.2133507  0.2874947  0.3633464    0.00000       Uiso       1.00
       H18          H  0.7226316  0.9241145 -0.3443845    0.00000       Uiso       1.00
       H19          H  0.9301245  0.2819503 -0.2474548    0.00000       Uiso       1.00
       H20          H  0.7067689  0.6343348 -0.2776840    0.00000       Uiso       1.00
       H21          H  0.3555829  0.0732500  0.3118916    0.00000       Uiso       1.00
       H22          H  0.0698006  0.7035651 -0.2101830    0.00000       Uiso       1.00
       H23          H  0.2929810  0.3665667  0.3746055    0.00000       Uiso       1.00
       H24          H  0.6444793  0.9257683 -0.3361231    0.00000       Uiso       1.00
       H25          H  0.6410273  0.7257451  0.4098684    0.00000       Uiso       1.00
       H26          H  0.2887524  0.9179376 -0.3868515    0.00000       Uiso       1.00
       H27          H  0.0806446  0.3687594  0.1551675    0.00000       Uiso       1.00
       H28          H  0.3591959  0.2774997 -0.3429161    0.00000       Uiso       1.00
       H29          H  0.7115653  0.0826576  0.3367842    0.00000       Uiso       1.00
       H30          H  0.9203953  0.6442430  0.2428209    0.00000       Uiso       1.00
       H31          H  0.7204852  0.8048819  0.4060801    0.00000       Uiso       1.00
       H32          H  0.2095816  0.9191362 -0.3709466    0.00000       Uiso       1.00
       H33          H  0.0787885  0.2887465  0.1497107    0.00000       Uiso       1.00
       H34          H  0.2793682  0.1979563 -0.3637984    0.00000       Uiso       1.00
       H35          H  0.7903932  0.0814139  0.3362263    0.00000       Uiso       1.00
       H36          H  0.9214928  0.7251515  0.2891943    0.00000       Uiso       1.00
       C79          C  0.5416794  0.9879588 -0.0844189    0.00000       Uiso       1.00
       C80          C  0.0127941  0.5505744 -0.0595596    0.00000       Uiso       1.00
       C81          C  0.4487794  0.4619741  0.1101239    0.00000       Uiso       1.00
       C82          C  0.4589508  0.0118881  0.0331170    0.00000       Uiso       1.00
       C83          C  0.9879336  0.4458087 -0.0579853    0.00000       Uiso       1.00
       C84          C  0.5516847  0.5401912  0.0005159    0.00000       Uiso       1.00
       C85          C  0.5481567  0.0380438  0.1342014    0.00000       Uiso       1.00
       C86          C  0.9614732  0.5118347 -0.0206457    0.00000       Uiso       1.00
       C87          C  0.4843889  0.4472897 -0.1113364    0.00000       Uiso       1.00
       C88          C  0.4524984  0.9618464 -0.1862816    0.00000       Uiso       1.00
       C89          C  0.0392790  0.4845921 -0.0948850    0.00000       Uiso       1.00
       C90          C  0.5161328  0.5548847  0.2228538    0.00000       Uiso       1.00
       C91          C  0.5075411  0.0498331  0.1918758    0.00000       Uiso       1.00
       C92          C  0.9491996  0.4602765 -0.0215713    0.00000       Uiso       1.00
       C93          C  0.5349524  0.4856785 -0.1649145    0.00000       Uiso       1.00
       C94          C  0.4931225  0.9500551 -0.2439341    0.00000       Uiso       1.00
       C95          C  0.0515179  0.5360627 -0.0964386    0.00000       Uiso       1.00
       C96          C  0.4655619  0.5164779  0.2766385    0.00000       Uiso       1.00
       H37          H  0.5826746  0.0664343  0.2549543    0.00000       Uiso       1.00
       H38          H  0.9324426  0.5209031  0.0077755    0.00000       Uiso       1.00
       H39          H  0.4736554  0.4082662 -0.2373694    0.00000       Uiso       1.00
       H40          H  0.4179761  0.9334766 -0.3070737    0.00000       Uiso       1.00
       H41          H  0.0682616  0.4754566 -0.1232363    0.00000       Uiso       1.00
       H42          H  0.5269138  0.5939173  0.3489570    0.00000       Uiso       1.00
       H43          H  0.5138572  0.0865113  0.3528075    0.00000       Uiso       1.00
       H44          H  0.9115725  0.4334184  0.0060691    0.00000       Uiso       1.00
       H45          H  0.5593861  0.4733115 -0.3282680    0.00000       Uiso       1.00
       H46          H  0.4868223  0.9133856 -0.4049281    0.00000       Uiso       1.00
       H47          H  0.0891296  0.5628660 -0.1252672    0.00000       Uiso       1.00
       H48          H  0.4411234  0.5288187  0.4401909    0.00000       Uiso       1.00
        N1          N  0.3801388  0.3717987  0.0034201    0.00000       Uiso       1.00
        N2          N  0.6281040  0.0093130  0.0170884    0.00000       Uiso       1.00
        N3          N  0.9907038  0.6193349  0.0084556    0.00000       Uiso       1.00
        N4          N  0.6199560  0.6305395  0.0909281    0.00000       Uiso       1.00
        N5          N  0.3722916  0.9905151 -0.0631563    0.00000       Uiso       1.00
        N6          N  0.0103893  0.3805326 -0.0293289    0.00000       Uiso       1.00
        C1          C  0.3979601  0.4241289  0.1671659    0.00000       Uiso       1.00
        C2          C  0.5817600  0.9752251 -0.1444384    0.00000       Uiso       1.00
        C3          C  0.0258173  0.6022621 -0.0631839    0.00000       Uiso       1.00
        C4          C  0.6023762  0.5779660 -0.0601140    0.00000       Uiso       1.00
        C5          C  0.4187976  0.0245414  0.0961141    0.00000       Uiso       1.00
        C6          C  0.9747738  0.3938891 -0.0601671    0.00000       Uiso       1.00
        H1          H  0.3741229  0.4367730  0.3364463    0.00000       Uiso       1.00
        H2          H  0.5753580  0.9390717 -0.3154629    0.00000       Uiso       1.00
        H3          H  0.0629679  0.6275339 -0.1185841    0.00000       Uiso       1.00
        H4          H  0.6263063  0.5650310 -0.2243763    0.00000       Uiso       1.00
        H5          H  0.4252625  0.0606220  0.2688053    0.00000       Uiso       1.00
        H6          H  0.9370294  0.3657071 -0.0828508    0.00000       Uiso       1.00
