data_crystal
 
_cell_length_a    30.17770
_cell_length_b    30.20430
_cell_length_c    3.73400
_cell_angle_alpha 107.59800
_cell_angle_beta  80.67330
_cell_angle_gamma 120.07530
 
_symmetry_space_group_name_Hall 'P 1'
_symmetry_space_group_name_H-M  'P 1'
 
loop_
_symmetry_equiv_pos_as_xyz
 'x,y,z' 
 
loop_
_atom_site_label
_atom_site_type_symbol
_atom_site_fract_x
_atom_site_fract_y
_atom_site_fract_z
_atom_site_charge
C          C       0.04671   0.99999   0.01697   0.0000000000
C          C       0.00047   0.04633  -0.02495   0.0000000000
C          C       0.95223   0.95385   0.02114   0.0000000000
C          C       0.95289   0.00030  -0.00403   0.0000000000
C          C       0.99915   0.95379   0.03348   0.0000000000
C          C       0.04736   0.04616  -0.01519   0.0000000000
C          C       0.09356   0.99967   0.02663   0.0000000000
C          C       0.00115   0.09275  -0.05102   0.0000000000
C          C       0.90465   0.90747   0.03416   0.0000000000
C          C       0.90598   0.00071  -0.00852   0.0000000000
C          C       0.99852   0.90730   0.05741   0.0000000000
C          C       0.09488   0.09251  -0.03101   0.0000000000
C          C       0.04531   0.90752   0.08299   0.0000000000
C          C       0.09561   0.13880  -0.06402   0.0000000000
C          C       0.85830   0.95462   0.01259   0.0000000000
C          C       0.95429   0.09396  -0.03757   0.0000000000
C          C       0.90403   0.86086   0.05717   0.0000000000
C          C       0.14111   0.04559  -0.00053   0.0000000000
C          C       0.09298   0.95341   0.05878   0.0000000000
C          C       0.04862   0.13829  -0.08600   0.0000000000
C          C       0.85762   0.90748   0.02238   0.0000000000
C          C       0.90667   0.04733  -0.03241   0.0000000000
C          C       0.95096   0.86015   0.05094   0.0000000000
C          C       0.14176   0.09277  -0.00862   0.0000000000
C          C       0.04222   0.86073   0.12403   0.0000000000
C          C       0.14386   0.18491  -0.06019   0.0000000000
C          C       0.81263   0.95788   0.02925   0.0000000000
C          C       0.95704   0.14294  -0.01849   0.0000000000
C          C       0.85590   0.81645   0.09243   0.0000000000
C          C       0.18680   0.04217  -0.02654   0.0000000000
C          C       0.18799   0.99774   0.00543   0.0000000000
C          C       0.00246   0.18771  -0.07616   0.0000000000
C          C       0.80903   0.81374   0.05621   0.0000000000
C          C       0.81166   0.00200  -0.01219   0.0000000000
C          C       0.99694   0.81182   0.07219   0.0000000000
C          C       0.19047   0.18745  -0.01779   0.0000000000
C          C       0.14072   0.95440   0.05292   0.0000000000
C          C       0.04693   0.18235  -0.13420   0.0000000000
C          C       0.81124   0.85940   0.01450   0.0000000000
C          C       0.85913   0.04522  -0.05735   0.0000000000
C          C       0.95226   0.81300   0.02664   0.0000000000
C          C       0.18808   0.14121   0.01303   0.0000000000
H          H       0.14663   0.21873  -0.08485   0.0000000000
H          H       0.77821   0.92802   0.07855   0.0000000000
H          H       0.07348   0.86102   0.19316   0.0000000000
H          H       0.85366   0.78469   0.15207   0.0000000000
H          H       0.22102   0.07200  -0.08010   0.0000000000
H          H       0.92528   0.14729   0.04698   0.0000000000
H          H       0.22185   0.14463   0.06280   0.0000000000
H          H       0.85774   0.07526  -0.11583   0.0000000000
H          H       0.91995   0.77755  -0.03432   0.0000000000
H          H       0.77721   0.85592  -0.02833   0.0000000000
H          H       0.14264   0.92305   0.08062   0.0000000000
H          H       0.07872   0.21221  -0.21432   0.0000000000
C          C       0.00353   0.23580  -0.06878   0.0000000000
C          C       0.76169   0.76704   0.06052   0.0000000000
C          C       0.23491   0.99685  -0.01115   0.0000000000
C          C       0.99642   0.76380   0.05829   0.0000000000
C          C       0.23793   0.23457  -0.00476   0.0000000000
C          C       0.76491   0.00280  -0.00824   0.0000000000
C          C       0.00567   0.33304  -0.04246   0.0000000000
C          C       0.66641   0.67277   0.06829   0.0000000000
C          C       0.32942   0.99512  -0.03825   0.0000000000
C          C       0.99492   0.66638   0.01527   0.0000000000
C          C       0.33354   0.32931   0.01559   0.0000000000
C          C       0.67083   0.00467  -0.00033   0.0000000000
C          C       0.04843   0.33344   0.06521   0.0000000000
C          C       0.67157   0.72292   0.26248   0.0000000000
C          C       0.28627   0.95098  -0.23301   0.0000000000
C          C       0.95228   0.67377   0.15417   0.0000000000
C          C       0.32847   0.27972  -0.19403   0.0000000000
C          C       0.71393   0.04925   0.19162   0.0000000000
C          C       0.04721   0.28590   0.05642   0.0000000000
C          C       0.71837   0.76933   0.25887   0.0000000000
C          C       0.23977   0.95176  -0.22101   0.0000000000
C          C       0.95314   0.72161   0.17837   0.0000000000
C          C       0.28149   0.23307  -0.20465   0.0000000000
C          C       0.76022   0.04842   0.18877   0.0000000000
C          C       0.75605   0.71640  -0.13657   0.0000000000
C          C       0.27868   0.04127   0.18113   0.0000000000
C          C       0.96083   0.23625  -0.17820   0.0000000000
C          C       0.24348   0.28461   0.20866   0.0000000000
C          C       0.72118   0.95796  -0.19805   0.0000000000
C          C       0.03888   0.75533  -0.08577   0.0000000000
C          C       0.70924   0.66998  -0.13204   0.0000000000
C          C       0.32516   0.04050   0.16787   0.0000000000
C          C       0.96164   0.28378  -0.16326   0.0000000000
C          C       0.29049   0.33131   0.21787   0.0000000000
C          C       0.67492   0.95882  -0.19458   0.0000000000
C          C       0.03843   0.70783  -0.10410   0.0000000000
H          H       0.92836   0.20171  -0.27561   0.0000000000
H          H       0.78597   0.71282  -0.28964   0.0000000000
H          H       0.27708   0.07471   0.33692   0.0000000000
H          H       0.07072   0.78344  -0.18681   0.0000000000
H          H       0.21335   0.28749   0.36335   0.0000000000
H          H       0.72263   0.92411  -0.34438   0.0000000000
H          H       0.93012   0.28195  -0.24745   0.0000000000
H          H       0.70677   0.63433  -0.27768   0.0000000000
H          H       0.35558   0.07325   0.31189   0.0000000000
H          H       0.06980   0.70357  -0.21018   0.0000000000
H          H       0.29298   0.36657   0.37461   0.0000000000
H          H       0.64448   0.92577  -0.33612   0.0000000000
H          H       0.64103   0.72575   0.40987   0.0000000000
H          H       0.28875   0.91794  -0.38685   0.0000000000
H          H       0.08064   0.36876   0.15517   0.0000000000
H          H       0.35920   0.27750  -0.34292   0.0000000000
H          H       0.71157   0.08266   0.33678   0.0000000000
H          H       0.92040   0.64424   0.24282   0.0000000000
H          H       0.72049   0.80488   0.40608   0.0000000000
H          H       0.20958   0.91914  -0.37095   0.0000000000
H          H       0.07879   0.28875   0.14971   0.0000000000
H          H       0.27937   0.19796  -0.36380   0.0000000000
H          H       0.79039   0.08141   0.33623   0.0000000000
H          H       0.92149   0.72515   0.28919   0.0000000000
C          C       0.54168   0.98796  -0.08442   0.0000000000
C          C       0.01279   0.55057  -0.05956   0.0000000000
C          C       0.44878   0.46197   0.11012   0.0000000000
C          C       0.45895   0.01189   0.03312   0.0000000000
C          C       0.98793   0.44581  -0.05799   0.0000000000
C          C       0.55168   0.54019   0.00052   0.0000000000
C          C       0.54816   0.03804   0.13420   0.0000000000
C          C       0.96147   0.51183  -0.02065   0.0000000000
C          C       0.48439   0.44729  -0.11134   0.0000000000
C          C       0.45250   0.96185  -0.18628   0.0000000000
C          C       0.03928   0.48459  -0.09488   0.0000000000
C          C       0.51613   0.55488   0.22285   0.0000000000
C          C       0.50754   0.04983   0.19188   0.0000000000
C          C       0.94920   0.46028  -0.02157   0.0000000000
C          C       0.53495   0.48568  -0.16491   0.0000000000
C          C       0.49312   0.95006  -0.24393   0.0000000000
C          C       0.05152   0.53606  -0.09644   0.0000000000
C          C       0.46556   0.51648   0.27664   0.0000000000
H          H       0.58267   0.06643   0.25495   0.0000000000
H          H       0.93244   0.52090   0.00778   0.0000000000
H          H       0.47366   0.40827  -0.23737   0.0000000000
H          H       0.41798   0.93348  -0.30707   0.0000000000
H          H       0.06826   0.47546  -0.12324   0.0000000000
H          H       0.52691   0.59392   0.34896   0.0000000000
H          H       0.51386   0.08651   0.35281   0.0000000000
H          H       0.91157   0.43342   0.00607   0.0000000000
H          H       0.55939   0.47331  -0.32827   0.0000000000
H          H       0.48682   0.91339  -0.40493   0.0000000000
H          H       0.08913   0.56287  -0.12527   0.0000000000
H          H       0.44112   0.52882   0.44019   0.0000000000
N          N       0.38014   0.37180   0.00342   0.0000000000
N          N       0.62810   0.00931   0.01709   0.0000000000
N          N       0.99070   0.61933   0.00846   0.0000000000
N          N       0.61996   0.63054   0.09093   0.0000000000
N          N       0.37229   0.99052  -0.06316   0.0000000000
N          N       0.01039   0.38053  -0.02933   0.0000000000
C          C       0.39796   0.42413   0.16717   0.0000000000
C          C       0.58176   0.97523  -0.14444   0.0000000000
C          C       0.02582   0.60226  -0.06318   0.0000000000
C          C       0.60238   0.57797  -0.06011   0.0000000000
C          C       0.41880   0.02454   0.09611   0.0000000000
C          C       0.97477   0.39389  -0.06017   0.0000000000
H          H       0.37412   0.43677   0.33645   0.0000000000
H          H       0.57536   0.93907  -0.31546   0.0000000000
H          H       0.06297   0.62753  -0.11858   0.0000000000
H          H       0.62631   0.56503  -0.22438   0.0000000000
H          H       0.42526   0.06062   0.26881   0.0000000000
H          H       0.93703   0.36571  -0.08285   0.0000000000
