data_crystal
 
_cell_length_a    40.37740
_cell_length_b    32.48720
_cell_length_c    6.72630
_cell_angle_alpha 90.00000
_cell_angle_beta  90.00000
_cell_angle_gamma 90.00000
 
_symmetry_space_group_name_Hall 'P 1'
_symmetry_space_group_name_H-M  'P 1'
 
loop_
_symmetry_equiv_pos_as_xyz
 'x,y,z' 
 
loop_
_atom_site_label
_atom_site_type_symbol
_atom_site_fract_x
_atom_site_fract_y
_atom_site_fract_z
_atom_site_charge
C          C       0.24802   0.79216   0.50000   0.0000000000
C          C       0.74802   0.29216   0.50000   0.0000000000
C          C       0.75198   0.20784   0.50000   0.0000000000
C          C       0.25198   0.70784   0.50000   0.0000000000
C          C       0.75198   0.79216   0.50000   0.0000000000
C          C       0.25198   0.29216   0.50000   0.0000000000
C          C       0.24802   0.20784   0.50000   0.0000000000
C          C       0.74802   0.70784   0.50000   0.0000000000
C          C       0.28165   0.72997   0.50000   0.0000000000
C          C       0.78165   0.22997   0.50000   0.0000000000
C          C       0.71836   0.27003   0.50000   0.0000000000
C          C       0.21836   0.77003   0.50000   0.0000000000
C          C       0.71836   0.72997   0.50000   0.0000000000
C          C       0.21836   0.22997   0.50000   0.0000000000
C          C       0.28165   0.27003   0.50000   0.0000000000
C          C       0.78165   0.77003   0.50000   0.0000000000
C          C       0.19306   0.69447   0.50000   0.0000000000
C          C       0.69306   0.19447   0.50000   0.0000000000
C          C       0.80694   0.30553   0.50000   0.0000000000
C          C       0.30694   0.80553   0.50000   0.0000000000
C          C       0.80694   0.69447   0.50000   0.0000000000
C          C       0.30694   0.19447   0.50000   0.0000000000
C          C       0.19306   0.30553   0.50000   0.0000000000
C          C       0.69306   0.80553   0.50000   0.0000000000
C          C       0.27981   0.77419   0.50000   0.0000000000
C          C       0.77981   0.27419   0.50000   0.0000000000
C          C       0.72020   0.22581   0.50000   0.0000000000
C          C       0.22020   0.72581   0.50000   0.0000000000
C          C       0.72020   0.77419   0.50000   0.0000000000
C          C       0.22020   0.27419   0.50000   0.0000000000
C          C       0.27981   0.22581   0.50000   0.0000000000
C          C       0.77981   0.72581   0.50000   0.0000000000
N          N       0.33808   0.79698   0.50000   0.0000000000
N          N       0.83808   0.29698   0.50000   0.0000000000
N          N       0.66192   0.20302   0.50000   0.0000000000
N          N       0.16192   0.70302   0.50000   0.0000000000
N          N       0.66192   0.79698   0.50000   0.0000000000
N          N       0.16192   0.29698   0.50000   0.0000000000
N          N       0.33808   0.20302   0.50000   0.0000000000
N          N       0.83808   0.70302   0.50000   0.0000000000
N          N       0.05691   0.50000   0.50000   0.0000000000
N          N       0.55691   0.00000   0.50000   0.0000000000
N          N       0.94309   0.50000   0.50000   0.0000000000
N          N       0.44309   0.00000   0.50000   0.0000000000
H          H       0.03316   0.50000   0.50000   0.0000000000
H          H       0.53316   0.00000   0.50000   0.0000000000
H          H       0.96684   0.50000   0.50000   0.0000000000
H          H       0.46684   0.00000   0.50000   0.0000000000
C          C       0.07501   0.46545   0.50000   0.0000000000
C          C       0.57501   0.96545   0.50000   0.0000000000
C          C       0.92499   0.53455   0.50000   0.0000000000
C          C       0.42499   0.03455   0.50000   0.0000000000
C          C       0.92499   0.46545   0.50000   0.0000000000
C          C       0.42499   0.96545   0.50000   0.0000000000
C          C       0.07501   0.53455   0.50000   0.0000000000
C          C       0.57501   0.03455   0.50000   0.0000000000
C          C       0.10784   0.47837   0.50000   0.0000000000
C          C       0.60784   0.97837   0.50000   0.0000000000
C          C       0.89216   0.52163   0.50000   0.0000000000
C          C       0.39216   0.02163   0.50000   0.0000000000
C          C       0.89216   0.47837   0.50000   0.0000000000
C          C       0.39216   0.97837   0.50000   0.0000000000
C          C       0.10784   0.52163   0.50000   0.0000000000
C          C       0.60784   0.02163   0.50000   0.0000000000
H          H       0.12948   0.45876   0.50000   0.0000000000
H          H       0.62948   0.95876   0.50000   0.0000000000
H          H       0.87052   0.54124   0.50000   0.0000000000
H          H       0.37052   0.04124   0.50000   0.0000000000
H          H       0.87052   0.45876   0.50000   0.0000000000
H          H       0.37052   0.95876   0.50000   0.0000000000
H          H       0.12948   0.54124   0.50000   0.0000000000
H          H       0.62948   0.04124   0.50000   0.0000000000
N          N       0.50000   0.93141   0.50000   0.0000000000
N          N       0.00000   0.43141   0.50000   0.0000000000
N          N       0.50000   0.06859   0.50000   0.0000000000
N          N       0.00000   0.56859   0.50000   0.0000000000
C          C       0.52915   0.90723   0.50000   0.0000000000
C          C       0.02915   0.40723   0.50000   0.0000000000
C          C       0.47085   0.09277   0.50000   0.0000000000
C          C       0.97085   0.59277   0.50000   0.0000000000
C          C       0.47085   0.90723   0.50000   0.0000000000
C          C       0.97085   0.40723   0.50000   0.0000000000
C          C       0.52915   0.09277   0.50000   0.0000000000
C          C       0.02915   0.59277   0.50000   0.0000000000
C          C       0.51672   0.86451   0.50000   0.0000000000
C          C       0.01672   0.36451   0.50000   0.0000000000
C          C       0.48328   0.13549   0.50000   0.0000000000
C          C       0.98328   0.63549   0.50000   0.0000000000
C          C       0.48328   0.86451   0.50000   0.0000000000
C          C       0.98328   0.36451   0.50000   0.0000000000
C          C       0.51672   0.13549   0.50000   0.0000000000
C          C       0.01672   0.63549   0.50000   0.0000000000
H          H       0.53190   0.83708   0.50000   0.0000000000
H          H       0.03189   0.33708   0.50000   0.0000000000
H          H       0.46811   0.16292   0.50000   0.0000000000
H          H       0.96811   0.66292   0.50000   0.0000000000
H          H       0.46811   0.83708   0.50000   0.0000000000
H          H       0.96811   0.33708   0.50000   0.0000000000
H          H       0.53190   0.16292   0.50000   0.0000000000
H          H       0.03189   0.66292   0.50000   0.0000000000
C          C       0.06182   0.42084   0.50000   0.0000000000
C          C       0.56182   0.92084   0.50000   0.0000000000
C          C       0.93818   0.57916   0.50000   0.0000000000
C          C       0.43818   0.07916   0.50000   0.0000000000
C          C       0.93818   0.42084   0.50000   0.0000000000
C          C       0.43818   0.92084   0.50000   0.0000000000
C          C       0.06182   0.57916   0.50000   0.0000000000
C          C       0.56182   0.07916   0.50000   0.0000000000
C          C       0.08762   0.38877   0.50000   0.0000000000
C          C       0.58762   0.88877   0.50000   0.0000000000
C          C       0.91238   0.61123   0.50000   0.0000000000
C          C       0.41238   0.11123   0.50000   0.0000000000
C          C       0.91238   0.38877   0.50000   0.0000000000
C          C       0.41238   0.88877   0.50000   0.0000000000
C          C       0.08762   0.61123   0.50000   0.0000000000
C          C       0.58762   0.11123   0.50000   0.0000000000
C          C       0.60000   0.87355   0.68027   0.0000000000
C          C       0.10000   0.37355   0.68027   0.0000000000
C          C       0.40000   0.12645   0.68027   0.0000000000
C          C       0.90000   0.62645   0.68027   0.0000000000
C          C       0.40000   0.87355   0.31972   0.0000000000
C          C       0.90000   0.37355   0.31972   0.0000000000
C          C       0.60000   0.12645   0.31972   0.0000000000
C          C       0.10000   0.62645   0.31972   0.0000000000
C          C       0.40000   0.12645   0.31972   0.0000000000
C          C       0.90000   0.62645   0.31972   0.0000000000
C          C       0.60000   0.87355   0.31972   0.0000000000
C          C       0.10000   0.37355   0.31972   0.0000000000
C          C       0.60000   0.12645   0.68027   0.0000000000
C          C       0.10000   0.62645   0.68027   0.0000000000
C          C       0.40000   0.87355   0.68027   0.0000000000
C          C       0.90000   0.37355   0.68027   0.0000000000
H          H       0.09054   0.38519   0.81992   0.0000000000
H          H       0.59054   0.88519   0.81992   0.0000000000
H          H       0.90946   0.61481   0.81992   0.0000000000
H          H       0.40946   0.11481   0.81992   0.0000000000
H          H       0.90946   0.38519   0.18008   0.0000000000
H          H       0.40946   0.88519   0.18008   0.0000000000
H          H       0.09054   0.61481   0.18008   0.0000000000
H          H       0.59054   0.11481   0.18008   0.0000000000
H          H       0.90946   0.61481   0.18008   0.0000000000
H          H       0.40946   0.11481   0.18008   0.0000000000
H          H       0.09054   0.38519   0.18008   0.0000000000
H          H       0.59054   0.88519   0.18008   0.0000000000
H          H       0.09054   0.61481   0.81992   0.0000000000
H          H       0.59054   0.11481   0.81992   0.0000000000
H          H       0.90946   0.38519   0.81992   0.0000000000
H          H       0.40946   0.88519   0.81992   0.0000000000
C          C       0.12462   0.34323   0.67993   0.0000000000
C          C       0.62462   0.84323   0.67993   0.0000000000
C          C       0.87538   0.65677   0.67993   0.0000000000
C          C       0.37538   0.15677   0.67993   0.0000000000
C          C       0.87538   0.34323   0.32006   0.0000000000
C          C       0.37538   0.84323   0.32006   0.0000000000
C          C       0.12462   0.65677   0.32006   0.0000000000
C          C       0.62462   0.15677   0.32006   0.0000000000
C          C       0.87538   0.65677   0.32006   0.0000000000
C          C       0.37538   0.15677   0.32006   0.0000000000
C          C       0.12462   0.34323   0.32006   0.0000000000
C          C       0.62462   0.84323   0.32006   0.0000000000
C          C       0.12462   0.65677   0.67993   0.0000000000
C          C       0.62462   0.15677   0.67993   0.0000000000
C          C       0.87538   0.34323   0.67993   0.0000000000
C          C       0.37538   0.84323   0.67993   0.0000000000
H          H       0.13420   0.33128   0.81845   0.0000000000
H          H       0.63420   0.83128   0.81845   0.0000000000
H          H       0.86580   0.66872   0.81845   0.0000000000
H          H       0.36580   0.16872   0.81845   0.0000000000
H          H       0.86580   0.33128   0.18154   0.0000000000
H          H       0.36580   0.83128   0.18154   0.0000000000
H          H       0.13420   0.66872   0.18154   0.0000000000
H          H       0.63420   0.16872   0.18154   0.0000000000
H          H       0.86580   0.66872   0.18154   0.0000000000
H          H       0.36580   0.16872   0.18154   0.0000000000
H          H       0.13420   0.33128   0.18154   0.0000000000
H          H       0.63420   0.83128   0.18154   0.0000000000
H          H       0.13420   0.66872   0.81845   0.0000000000
H          H       0.63420   0.16872   0.81845   0.0000000000
H          H       0.86580   0.33128   0.81845   0.0000000000
H          H       0.36580   0.83128   0.81845   0.0000000000
C          C       0.13705   0.32822   0.50000   0.0000000000
C          C       0.63705   0.82822   0.50000   0.0000000000
C          C       0.86295   0.67178   0.50000   0.0000000000
C          C       0.36295   0.17178   0.50000   0.0000000000
C          C       0.86295   0.32822   0.50000   0.0000000000
C          C       0.36295   0.82822   0.50000   0.0000000000
C          C       0.13705   0.67178   0.50000   0.0000000000
C          C       0.63705   0.17178   0.50000   0.0000000000
H          H       0.24553   0.82539   0.50000   0.0000000000
O          O       0.30916   0.70303   0.50000   0.0000000000
H          H       0.20004   0.66215   0.50000   0.0000000000
C          C       0.65847   0.71507   0.50000   0.0000000000
C          C       0.62921   0.72258   0.50000   0.0000000000
H          H       0.60367   0.72950   0.50000   0.0000000000
H          H       0.74553   0.32539   0.50000   0.0000000000
O          O       0.80917   0.20303   0.50000   0.0000000000
H          H       0.70004   0.16215   0.50000   0.0000000000
C          C       0.15847   0.21507   0.50000   0.0000000000
C          C       0.12921   0.22258   0.50000   0.0000000000
H          H       0.10367   0.22950   0.50000   0.0000000000
H          H       0.75447   0.17461   0.50000   0.0000000000
O          O       0.69084   0.29697   0.50000   0.0000000000
H          H       0.79996   0.33785   0.50000   0.0000000000
C          C       0.34153   0.28493   0.50000   0.0000000000
C          C       0.37079   0.27742   0.50000   0.0000000000
H          H       0.39633   0.27050   0.50000   0.0000000000
H          H       0.25447   0.67461   0.50000   0.0000000000
O          O       0.19084   0.79697   0.50000   0.0000000000
H          H       0.29996   0.83785   0.50000   0.0000000000
C          C       0.84153   0.78493   0.50000   0.0000000000
C          C       0.87079   0.77742   0.50000   0.0000000000
H          H       0.89633   0.77050   0.50000   0.0000000000
H          H       0.75447   0.82539   0.50000   0.0000000000
O          O       0.69084   0.70303   0.50000   0.0000000000
H          H       0.79996   0.66215   0.50000   0.0000000000
C          C       0.34153   0.71507   0.50000   0.0000000000
C          C       0.37079   0.72258   0.50000   0.0000000000
H          H       0.39633   0.72950   0.50000   0.0000000000
H          H       0.25447   0.32539   0.50000   0.0000000000
O          O       0.19084   0.20303   0.50000   0.0000000000
H          H       0.29996   0.16215   0.50000   0.0000000000
C          C       0.84153   0.21507   0.50000   0.0000000000
C          C       0.87079   0.22258   0.50000   0.0000000000
H          H       0.89633   0.22950   0.50000   0.0000000000
H          H       0.24553   0.17461   0.50000   0.0000000000
O          O       0.30916   0.29697   0.50000   0.0000000000
H          H       0.20004   0.33785   0.50000   0.0000000000
C          C       0.65847   0.28493   0.50000   0.0000000000
C          C       0.62921   0.27742   0.50000   0.0000000000
H          H       0.60367   0.27050   0.50000   0.0000000000
H          H       0.74553   0.67461   0.50000   0.0000000000
O          O       0.80917   0.79697   0.50000   0.0000000000
H          H       0.70004   0.83785   0.50000   0.0000000000
C          C       0.15847   0.78493   0.50000   0.0000000000
C          C       0.12921   0.77742   0.50000   0.0000000000
H          H       0.10367   0.77050   0.50000   0.0000000000
H          H       0.50000   0.96106   0.50000   0.0000000000
H          H       0.00000   0.46106   0.50000   0.0000000000
H          H       0.50000   0.03894   0.50000   0.0000000000
H          H       0.00000   0.53894   0.50000   0.0000000000
