data_HCC-H2P-COF
_audit_creation_date              0000-00-00
_audit_creation_method            'LanYouShi'
_symmetry_space_group_name_H-M    'P1'
_cell_length_a                    40.3773994
_cell_length_b                    32.4872017
_cell_length_c                    6.7262998
_cell_angle_alpha                 90.0000000
_cell_angle_beta                  90.0000000
_cell_angle_gamma                 90.0000000
loop_
_atom_site_label
_atom_site_type_symbol
_atom_site_fract_x
_atom_site_fract_y
_atom_site_fract_z
_atom_site_U_iso_or_equiv
_atom_site_adp_type
_atom_site_occupancy
        C1          C  0.2480178  0.7921584  0.4999976    0.00000       Uiso       1.00
        C2          C  0.7480181  0.2921584  0.4999976    0.00000       Uiso       1.00
        C3          C  0.7519827  0.2078415  0.4999976    0.00000       Uiso       1.00
        C4          C  0.2519825  0.7078414  0.4999976    0.00000       Uiso       1.00
        C5          C  0.7519827  0.7921584  0.4999976    0.00000       Uiso       1.00
        C6          C  0.2519825  0.2921584  0.4999976    0.00000       Uiso       1.00
        C7          C  0.2480178  0.2078415  0.4999976    0.00000       Uiso       1.00
        C8          C  0.7480181  0.7078414  0.4999976    0.00000       Uiso       1.00
        C9          C  0.2816451  0.7299724  0.4999976    0.00000       Uiso       1.00
       C10          C  0.7816454  0.2299725  0.4999976    0.00000       Uiso       1.00
       C11          C  0.7183554  0.2700275  0.4999976    0.00000       Uiso       1.00
       C12          C  0.2183551  0.7700274  0.4999976    0.00000       Uiso       1.00
       C13          C  0.7183554  0.7299724  0.4999976    0.00000       Uiso       1.00
       C14          C  0.2183551  0.2299725  0.4999976    0.00000       Uiso       1.00
       C15          C  0.2816451  0.2700275  0.4999976    0.00000       Uiso       1.00
       C16          C  0.7816454  0.7700274  0.4999976    0.00000       Uiso       1.00
       C17          C  0.1930610  0.6944740  0.4999976    0.00000       Uiso       1.00
       C18          C  0.6930612  0.1944741  0.4999976    0.00000       Uiso       1.00
       C19          C  0.8069395  0.3055258  0.4999976    0.00000       Uiso       1.00
       C20          C  0.3069393  0.8055257  0.4999976    0.00000       Uiso       1.00
       C21          C  0.8069395  0.6944740  0.4999976    0.00000       Uiso       1.00
       C22          C  0.3069393  0.1944741  0.4999976    0.00000       Uiso       1.00
       C23          C  0.1930610  0.3055258  0.4999976    0.00000       Uiso       1.00
       C24          C  0.6930612  0.8055257  0.4999976    0.00000       Uiso       1.00
       C25          C  0.2798051  0.7741899  0.4999976    0.00000       Uiso       1.00
       C26          C  0.7798053  0.2741900  0.4999976    0.00000       Uiso       1.00
       C27          C  0.7201955  0.2258099  0.4999976    0.00000       Uiso       1.00
       C28          C  0.2201952  0.7258098  0.4999976    0.00000       Uiso       1.00
       C29          C  0.7201955  0.7741899  0.4999976    0.00000       Uiso       1.00
       C30          C  0.2201952  0.2741900  0.4999976    0.00000       Uiso       1.00
       C31          C  0.2798051  0.2258099  0.4999976    0.00000       Uiso       1.00
       C32          C  0.7798053  0.7258098  0.4999976    0.00000       Uiso       1.00
        N1          N  0.3380817  0.7969761  0.4999976    0.00000       Uiso       1.00
        N2          N  0.8380820  0.2969762  0.4999976    0.00000       Uiso       1.00
        N3          N  0.6619189  0.2030237  0.4999976    0.00000       Uiso       1.00
        N4          N  0.1619186  0.7030236  0.4999976    0.00000       Uiso       1.00
        N5          N  0.6619189  0.7969761  0.4999976    0.00000       Uiso       1.00
        N6          N  0.1619186  0.2969762  0.4999976    0.00000       Uiso       1.00
        N7          N  0.3380817  0.2030237  0.4999976    0.00000       Uiso       1.00
        N8          N  0.8380820  0.7030236  0.4999976    0.00000       Uiso       1.00
        N9          N  0.0569096  0.4999999  0.4999976    0.00000       Uiso       1.00
       N10          N  0.5569099  0.0000000  0.4999976    0.00000       Uiso       1.00
       N11          N  0.9430909  0.4999999  0.4999976    0.00000       Uiso       1.00
       N12          N  0.4430907  0.0000000  0.4999976    0.00000       Uiso       1.00
        H1          H  0.0331608  0.4999999  0.4999976    0.00000       Uiso       1.00
        H2          H  0.5331611  0.0000000  0.4999976    0.00000       Uiso       1.00
        H3          H  0.9668397  0.4999999  0.4999976    0.00000       Uiso       1.00
        H4          H  0.4668395  0.0000000  0.4999976    0.00000       Uiso       1.00
       C33          C  0.0750101  0.4654540  0.4999976    0.00000       Uiso       1.00
       C34          C  0.5750104  0.9654539  0.4999976    0.00000       Uiso       1.00
       C35          C  0.9249904  0.5345458  0.4999976    0.00000       Uiso       1.00
       C36          C  0.4249901  0.0345459  0.4999976    0.00000       Uiso       1.00
       C37          C  0.9249904  0.4654540  0.4999976    0.00000       Uiso       1.00
       C38          C  0.4249901  0.9654539  0.4999976    0.00000       Uiso       1.00
       C39          C  0.0750101  0.5345458  0.4999976    0.00000       Uiso       1.00
       C40          C  0.5750104  0.0345459  0.4999976    0.00000       Uiso       1.00
       C41          C  0.1078389  0.4783725  0.4999976    0.00000       Uiso       1.00
       C42          C  0.6078392  0.9783723  0.4999976    0.00000       Uiso       1.00
       C43          C  0.8921616  0.5216274  0.4999976    0.00000       Uiso       1.00
       C44          C  0.3921614  0.0216275  0.4999976    0.00000       Uiso       1.00
       C45          C  0.8921616  0.4783725  0.4999976    0.00000       Uiso       1.00
       C46          C  0.3921614  0.9783723  0.4999976    0.00000       Uiso       1.00
       C47          C  0.1078389  0.5216274  0.4999976    0.00000       Uiso       1.00
       C48          C  0.6078392  0.0216275  0.4999976    0.00000       Uiso       1.00
        H5          H  0.1294818  0.4587644  0.4999976    0.00000       Uiso       1.00
        H6          H  0.6294820  0.9587643  0.4999976    0.00000       Uiso       1.00
        H7          H  0.8705188  0.5412354  0.4999976    0.00000       Uiso       1.00
        H8          H  0.3705185  0.0412356  0.4999976    0.00000       Uiso       1.00
        H9          H  0.8705188  0.4587644  0.4999976    0.00000       Uiso       1.00
       H10          H  0.3705185  0.9587643  0.4999976    0.00000       Uiso       1.00
       H11          H  0.1294818  0.5412354  0.4999976    0.00000       Uiso       1.00
       H12          H  0.6294820  0.0412356  0.4999976    0.00000       Uiso       1.00
       N13          N  0.5000003  0.9314101  0.4999976    0.00000       Uiso       1.00
       N14          N  0.0000000  0.4314102  0.4999976    0.00000       Uiso       1.00
       N15          N  0.5000003  0.0685897  0.4999976    0.00000       Uiso       1.00
       N16          N  0.0000000  0.5685896  0.4999976    0.00000       Uiso       1.00
       C49          C  0.5291489  0.9072291  0.4999976    0.00000       Uiso       1.00
       C50          C  0.0291486  0.4072291  0.4999976    0.00000       Uiso       1.00
       C51          C  0.4708516  0.0927708  0.4999976    0.00000       Uiso       1.00
       C52          C  0.9708519  0.5927707  0.4999976    0.00000       Uiso       1.00
       C53          C  0.4708516  0.9072291  0.4999976    0.00000       Uiso       1.00
       C54          C  0.9708519  0.4072291  0.4999976    0.00000       Uiso       1.00
       C55          C  0.5291489  0.0927708  0.4999976    0.00000       Uiso       1.00
       C56          C  0.0291486  0.5927707  0.4999976    0.00000       Uiso       1.00
       C57          C  0.5167190  0.8645139  0.4999976    0.00000       Uiso       1.00
       C58          C  0.0167187  0.3645140  0.4999976    0.00000       Uiso       1.00
       C59          C  0.4832815  0.1354859  0.4999976    0.00000       Uiso       1.00
       C60          C  0.9832818  0.6354858  0.4999976    0.00000       Uiso       1.00
       C61          C  0.4832815  0.8645139  0.4999976    0.00000       Uiso       1.00
       C62          C  0.9832818  0.3645140  0.4999976    0.00000       Uiso       1.00
       C63          C  0.5167190  0.1354859  0.4999976    0.00000       Uiso       1.00
       C64          C  0.0167187  0.6354858  0.4999976    0.00000       Uiso       1.00
       H13          H  0.5318953  0.8370770  0.4999976    0.00000       Uiso       1.00
       H14          H  0.0318950  0.3370771  0.4999976    0.00000       Uiso       1.00
       H15          H  0.4681052  0.1629228  0.4999976    0.00000       Uiso       1.00
       H16          H  0.9681054  0.6629227  0.4999976    0.00000       Uiso       1.00
       H17          H  0.4681052  0.8370770  0.4999976    0.00000       Uiso       1.00
       H18          H  0.9681054  0.3370771  0.4999976    0.00000       Uiso       1.00
       H19          H  0.5318953  0.1629228  0.4999976    0.00000       Uiso       1.00
       H20          H  0.0318950  0.6629227  0.4999976    0.00000       Uiso       1.00
       C65          C  0.0618165  0.4208396  0.4999976    0.00000       Uiso       1.00
       C66          C  0.5618167  0.9208395  0.4999976    0.00000       Uiso       1.00
       C67          C  0.9381840  0.5791602  0.4999976    0.00000       Uiso       1.00
       C68          C  0.4381838  0.0791603  0.4999976    0.00000       Uiso       1.00
       C69          C  0.9381840  0.4208396  0.4999976    0.00000       Uiso       1.00
       C70          C  0.4381838  0.9208395  0.4999976    0.00000       Uiso       1.00
       C71          C  0.0618165  0.5791602  0.4999976    0.00000       Uiso       1.00
       C72          C  0.5618167  0.0791603  0.4999976    0.00000       Uiso       1.00
       C73          C  0.0876165  0.3887680  0.4999976    0.00000       Uiso       1.00
       C74          C  0.5876168  0.8887678  0.4999976    0.00000       Uiso       1.00
       C75          C  0.9123840  0.6112319  0.4999976    0.00000       Uiso       1.00
       C76          C  0.4123838  0.1112320  0.4999976    0.00000       Uiso       1.00
       C77          C  0.9123840  0.3887680  0.4999976    0.00000       Uiso       1.00
       C78          C  0.4123838  0.8887678  0.4999976    0.00000       Uiso       1.00
       C79          C  0.0876165  0.6112319  0.4999976    0.00000       Uiso       1.00
       C80          C  0.5876168  0.1112320  0.4999976    0.00000       Uiso       1.00
       C81          C  0.6000017  0.8735451  0.6802742    0.00000       Uiso       1.00
       C82          C  0.1000014  0.3735452  0.6802742    0.00000       Uiso       1.00
       C83          C  0.3999988  0.1264548  0.6802742    0.00000       Uiso       1.00
       C84          C  0.8999991  0.6264547  0.6802742    0.00000       Uiso       1.00
       C85          C  0.3999988  0.8735451  0.3197211    0.00000       Uiso       1.00
       C86          C  0.8999991  0.3735452  0.3197211    0.00000       Uiso       1.00
       C87          C  0.6000017  0.1264548  0.3197211    0.00000       Uiso       1.00
       C88          C  0.1000014  0.6264547  0.3197211    0.00000       Uiso       1.00
       C89          C  0.3999988  0.1264548  0.3197211    0.00000       Uiso       1.00
       C90          C  0.8999991  0.6264547  0.3197211    0.00000       Uiso       1.00
       C91          C  0.6000017  0.8735451  0.3197211    0.00000       Uiso       1.00
       C92          C  0.1000014  0.3735452  0.3197211    0.00000       Uiso       1.00
       C93          C  0.6000017  0.1264548  0.6802742    0.00000       Uiso       1.00
       C94          C  0.1000014  0.6264547  0.6802742    0.00000       Uiso       1.00
       C95          C  0.3999988  0.8735451  0.6802742    0.00000       Uiso       1.00
       C96          C  0.8999991  0.3735452  0.6802742    0.00000       Uiso       1.00
       H21          H  0.0905420  0.3851940  0.8199154    0.00000       Uiso       1.00
       H22          H  0.5905422  0.8851939  0.8199154    0.00000       Uiso       1.00
       H23          H  0.9094586  0.6148058  0.8199154    0.00000       Uiso       1.00
       H24          H  0.4094583  0.1148059  0.8199154    0.00000       Uiso       1.00
       H25          H  0.9094586  0.3851940  0.1800798    0.00000       Uiso       1.00
       H26          H  0.4094583  0.8851939  0.1800798    0.00000       Uiso       1.00
       H27          H  0.0905420  0.6148058  0.1800798    0.00000       Uiso       1.00
       H28          H  0.5905422  0.1148059  0.1800798    0.00000       Uiso       1.00
       H29          H  0.9094586  0.6148058  0.1800798    0.00000       Uiso       1.00
       H30          H  0.4094583  0.1148059  0.1800798    0.00000       Uiso       1.00
       H31          H  0.0905420  0.3851940  0.1800798    0.00000       Uiso       1.00
       H32          H  0.5905422  0.8851939  0.1800798    0.00000       Uiso       1.00
       H33          H  0.0905420  0.6148058  0.8199154    0.00000       Uiso       1.00
       H34          H  0.5905422  0.1148059  0.8199154    0.00000       Uiso       1.00
       H35          H  0.9094586  0.3851940  0.8199154    0.00000       Uiso       1.00
       H36          H  0.4094583  0.8851939  0.8199154    0.00000       Uiso       1.00
       C97          C  0.1246199  0.3432274  0.6799337    0.00000       Uiso       1.00
       C98          C  0.6246202  0.8432274  0.6799337    0.00000       Uiso       1.00
       C99          C  0.8753806  0.6567724  0.6799337    0.00000       Uiso       1.00
      C100          C  0.3753803  0.1567725  0.6799337    0.00000       Uiso       1.00
      C101          C  0.8753806  0.3432274  0.3200616    0.00000       Uiso       1.00
      C102          C  0.3753803  0.8432274  0.3200616    0.00000       Uiso       1.00
      C103          C  0.1246199  0.6567724  0.3200616    0.00000       Uiso       1.00
      C104          C  0.6246202  0.1567725  0.3200616    0.00000       Uiso       1.00
      C105          C  0.8753806  0.6567724  0.3200616    0.00000       Uiso       1.00
      C106          C  0.3753803  0.1567725  0.3200616    0.00000       Uiso       1.00
      C107          C  0.1246199  0.3432274  0.3200616    0.00000       Uiso       1.00
      C108          C  0.6246202  0.8432274  0.3200616    0.00000       Uiso       1.00
      C109          C  0.1246199  0.6567724  0.6799337    0.00000       Uiso       1.00
      C110          C  0.6246202  0.1567725  0.6799337    0.00000       Uiso       1.00
      C111          C  0.8753806  0.3432274  0.6799337    0.00000       Uiso       1.00
      C112          C  0.3753803  0.8432274  0.6799337    0.00000       Uiso       1.00
       H37          H  0.1341971  0.3312789  0.8184513    0.00000       Uiso       1.00
       H38          H  0.6341974  0.8312789  0.8184513    0.00000       Uiso       1.00
       H39          H  0.8658034  0.6687209  0.8184513    0.00000       Uiso       1.00
       H40          H  0.3658031  0.1687210  0.8184513    0.00000       Uiso       1.00
       H41          H  0.8658034  0.3312789  0.1815439    0.00000       Uiso       1.00
       H42          H  0.3658031  0.8312789  0.1815439    0.00000       Uiso       1.00
       H43          H  0.1341971  0.6687209  0.1815439    0.00000       Uiso       1.00
       H44          H  0.6341974  0.1687210  0.1815439    0.00000       Uiso       1.00
       H45          H  0.8658034  0.6687209  0.1815439    0.00000       Uiso       1.00
       H46          H  0.3658031  0.1687210  0.1815439    0.00000       Uiso       1.00
       H47          H  0.1341971  0.3312789  0.1815439    0.00000       Uiso       1.00
       H48          H  0.6341974  0.8312789  0.1815439    0.00000       Uiso       1.00
       H49          H  0.1341971  0.6687209  0.8184513    0.00000       Uiso       1.00
       H50          H  0.6341974  0.1687210  0.8184513    0.00000       Uiso       1.00
       H51          H  0.8658034  0.3312789  0.8184513    0.00000       Uiso       1.00
       H52          H  0.3658031  0.8312789  0.8184513    0.00000       Uiso       1.00
      C113          C  0.1370515  0.3282226  0.4999976    0.00000       Uiso       1.00
      C114          C  0.6370518  0.8282226  0.4999976    0.00000       Uiso       1.00
      C115          C  0.8629490  0.6717772  0.4999976    0.00000       Uiso       1.00
      C116          C  0.3629487  0.1717773  0.4999976    0.00000       Uiso       1.00
      C117          C  0.8629490  0.3282226  0.4999976    0.00000       Uiso       1.00
      C118          C  0.3629487  0.8282226  0.4999976    0.00000       Uiso       1.00
      C119          C  0.1370515  0.6717772  0.4999976    0.00000       Uiso       1.00
      C120          C  0.6370518  0.1717773  0.4999976    0.00000       Uiso       1.00
       H53          H  0.2455256  0.8253899  0.4999976    0.00000       Uiso       1.00
        O1          O  0.3091648  0.7030325  0.4999976    0.00000       Uiso       1.00
       H54          H  0.2000428  0.6621525  0.4999976    0.00000       Uiso       1.00
      C121          C  0.6584725  0.7150686  0.4999976    0.00000       Uiso       1.00
      C122          C  0.6292126  0.7225773  0.4999976    0.00000       Uiso       1.00
       H55          H  0.6036721  0.7294967  0.4999976    0.00000       Uiso       1.00
       H56          H  0.7455259  0.3253900  0.4999976    0.00000       Uiso       1.00
        O2          O  0.8091651  0.2030326  0.4999976    0.00000       Uiso       1.00
       H57          H  0.7000431  0.1621525  0.4999976    0.00000       Uiso       1.00
      C123          C  0.1584723  0.2150687  0.4999976    0.00000       Uiso       1.00
      C124          C  0.1292124  0.2225774  0.4999976    0.00000       Uiso       1.00
       H58          H  0.1036718  0.2294968  0.4999976    0.00000       Uiso       1.00
       H59          H  0.7544749  0.1746099  0.4999976    0.00000       Uiso       1.00
        O3          O  0.6908357  0.2969674  0.4999976    0.00000       Uiso       1.00
       H60          H  0.7999578  0.3378474  0.4999976    0.00000       Uiso       1.00
      C125          C  0.3415280  0.2849312  0.4999976    0.00000       Uiso       1.00
      C126          C  0.3707879  0.2774225  0.4999976    0.00000       Uiso       1.00
       H61          H  0.3963284  0.2705032  0.4999976    0.00000       Uiso       1.00
       H62          H  0.2544746  0.6746098  0.4999976    0.00000       Uiso       1.00
        O4          O  0.1908354  0.7969673  0.4999976    0.00000       Uiso       1.00
       H63          H  0.2999574  0.8378473  0.4999976    0.00000       Uiso       1.00
      C127          C  0.8415282  0.7849311  0.4999976    0.00000       Uiso       1.00
      C128          C  0.8707882  0.7774225  0.4999976    0.00000       Uiso       1.00
       H64          H  0.8963287  0.7705030  0.4999976    0.00000       Uiso       1.00
       H65          H  0.7544749  0.8253899  0.4999976    0.00000       Uiso       1.00
        O5          O  0.6908357  0.7030325  0.4999976    0.00000       Uiso       1.00
       H66          H  0.7999578  0.6621525  0.4999976    0.00000       Uiso       1.00
      C129          C  0.3415280  0.7150686  0.4999976    0.00000       Uiso       1.00
      C130          C  0.3707879  0.7225773  0.4999976    0.00000       Uiso       1.00
       H67          H  0.3963284  0.7294967  0.4999976    0.00000       Uiso       1.00
       H68          H  0.2544746  0.3253900  0.4999976    0.00000       Uiso       1.00
        O6          O  0.1908354  0.2030326  0.4999976    0.00000       Uiso       1.00
       H69          H  0.2999574  0.1621525  0.4999976    0.00000       Uiso       1.00
      C131          C  0.8415282  0.2150687  0.4999976    0.00000       Uiso       1.00
      C132          C  0.8707882  0.2225774  0.4999976    0.00000       Uiso       1.00
       H70          H  0.8963287  0.2294968  0.4999976    0.00000       Uiso       1.00
       H71          H  0.2455256  0.1746099  0.4999976    0.00000       Uiso       1.00
        O7          O  0.3091648  0.2969674  0.4999976    0.00000       Uiso       1.00
       H72          H  0.2000428  0.3378474  0.4999976    0.00000       Uiso       1.00
      C133          C  0.6584725  0.2849312  0.4999976    0.00000       Uiso       1.00
      C134          C  0.6292126  0.2774225  0.4999976    0.00000       Uiso       1.00
       H73          H  0.6036721  0.2705032  0.4999976    0.00000       Uiso       1.00
       H74          H  0.7455259  0.6746098  0.4999976    0.00000       Uiso       1.00
        O8          O  0.8091651  0.7969673  0.4999976    0.00000       Uiso       1.00
       H75          H  0.7000431  0.8378473  0.4999976    0.00000       Uiso       1.00
      C135          C  0.1584723  0.7849311  0.4999976    0.00000       Uiso       1.00
      C136          C  0.1292124  0.7774225  0.4999976    0.00000       Uiso       1.00
       H76          H  0.1036718  0.7705030  0.4999976    0.00000       Uiso       1.00
       H77          H  0.5000003  0.9610635  0.4999976    0.00000       Uiso       1.00
       H78          H  0.0000000  0.4610635  0.4999976    0.00000       Uiso       1.00
       H79          H  0.5000003  0.0389364  0.4999976    0.00000       Uiso       1.00
       H80          H  0.0000000  0.5389363  0.4999976    0.00000       Uiso       1.00
