data_crystal
 
_cell_length_a    25.53530
_cell_length_b    6.77390
_cell_length_c    25.47920
_cell_angle_alpha 90.00000
_cell_angle_beta  90.43670
_cell_angle_gamma 90.00000
 
_symmetry_space_group_name_Hall 'P 1'
_symmetry_space_group_name_H-M  'P 1'
 
loop_
_symmetry_equiv_pos_as_xyz
 'x,y,z' 
 
loop_
_atom_site_label
_atom_site_type_symbol
_atom_site_fract_x
_atom_site_fract_y
_atom_site_fract_z
_atom_site_charge
C          C       0.55633   0.50000   0.50338   0.0000000000
C          C       0.44369   0.50000   0.49660   0.0000000000
C          C       0.00603   0.50000   0.94413   0.0000000000
C          C       0.99399   0.50000   0.05586   0.0000000000
C          C       0.61140   0.50000   0.50973   0.0000000000
H          H       0.62678   0.50000   0.54710   0.0000000000
C          C       0.38862   0.50000   0.49026   0.0000000000
H          H       0.37324   0.50000   0.45288   0.0000000000
C          C       0.01290   0.50000   0.88927   0.0000000000
H          H       0.05020   0.50000   0.87456   0.0000000000
C          C       0.98712   0.50000   0.11072   0.0000000000
H          H       0.94982   0.50000   0.12542   0.0000000000
C          C       0.52490   0.50000   0.54897   0.0000000000
C          C       0.47512   0.50000   0.45102   0.0000000000
C          C       0.05020   0.50000   0.97798   0.0000000000
C          C       0.94981   0.50000   0.02201   0.0000000000
C          C       0.46995   0.50000   0.54598   0.0000000000
C          C       0.53007   0.50000   0.45400   0.0000000000
C          C       0.04427   0.50000   0.03287   0.0000000000
C          C       0.95575   0.50000   0.96711   0.0000000000
H          H       0.54156   0.50000   0.58561   0.0000000000
H          H       0.45846   0.50000   0.41437   0.0000000000
H          H       0.08731   0.50000   0.96300   0.0000000000
H          H       0.91271   0.50000   0.03698   0.0000000000
C          C       0.04015   0.50000   0.61516   0.0000000000
C          C       0.95987   0.50000   0.38482   0.0000000000
C          C       0.10692   0.50000   0.55850   0.0000000000
C          C       0.89310   0.50000   0.44149   0.0000000000
C          C       0.08678   0.50000   0.64410   0.0000000000
C          C       0.91324   0.50000   0.35589   0.0000000000
C          C       0.12781   0.50000   0.60928   0.0000000000
C          C       0.87221   0.50000   0.39071   0.0000000000
H          H       0.09062   0.50000   0.68404   0.0000000000
H          H       0.90940   0.50000   0.31595   0.0000000000
H          H       0.16656   0.50000   0.61959   0.0000000000
H          H       0.83346   0.50000   0.38039   0.0000000000
N          N       0.93735   0.50000   0.55317   0.0000000000
N          N       0.06267   0.50000   0.44682   0.0000000000
C          C       0.94263   0.50000   0.60618   0.0000000000
C          C       0.05739   0.50000   0.39381   0.0000000000
C          C       0.11405   0.50000   0.46073   0.0000000000
C          C       0.88597   0.50000   0.53925   0.0000000000
C          C       0.89221   0.50000   0.62694   0.0000000000
C          C       0.10781   0.50000   0.37305   0.0000000000
C          C       0.14278   0.50000   0.41435   0.0000000000
C          C       0.85724   0.50000   0.58564   0.0000000000
H          H       0.88223   0.50000   0.66571   0.0000000000
H          H       0.11779   0.50000   0.33427   0.0000000000
H          H       0.18263   0.50000   0.41085   0.0000000000
H          H       0.81739   0.50000   0.58913   0.0000000000
C          C       0.98924   0.50000   0.63658   0.0000000000
C          C       0.01078   0.50000   0.36341   0.0000000000
C          C       0.13636   0.50000   0.51173   0.0000000000
C          C       0.86365   0.50000   0.48825   0.0000000000
C          C       0.98483   0.50000   0.69184   0.0000000000
C          C       0.01519   0.50000   0.30815   0.0000000000
C          C       0.19154   0.50000   0.51645   0.0000000000
C          C       0.80847   0.50000   0.48354   0.0000000000
C          C       0.98256   0.68005   0.71974   0.0000000000
C          C       0.01746   0.68005   0.28025   0.0000000000
C          C       0.01746   0.31995   0.28025   0.0000000000
C          C       0.98256   0.31995   0.71974   0.0000000000
C          C       0.21940   0.31993   0.51891   0.0000000000
C          C       0.78062   0.31993   0.48108   0.0000000000
C          C       0.78062   0.68007   0.48108   0.0000000000
C          C       0.21940   0.68007   0.51891   0.0000000000
H          H       0.98404   0.81173   0.70011   0.0000000000
H          H       0.01597   0.81173   0.29987   0.0000000000
H          H       0.01597   0.18827   0.29987   0.0000000000
H          H       0.98404   0.18827   0.70011   0.0000000000
H          H       0.19982   0.18823   0.51728   0.0000000000
H          H       0.80020   0.18823   0.48271   0.0000000000
H          H       0.80020   0.81177   0.48271   0.0000000000
H          H       0.19982   0.81177   0.51728   0.0000000000
C          C       0.97818   0.67964   0.77481   0.0000000000
C          C       0.02183   0.67964   0.22517   0.0000000000
C          C       0.02183   0.32035   0.22517   0.0000000000
C          C       0.97818   0.32035   0.77481   0.0000000000
C          C       0.27439   0.32036   0.52372   0.0000000000
C          C       0.72563   0.32036   0.47626   0.0000000000
C          C       0.72563   0.67963   0.47626   0.0000000000
C          C       0.27439   0.67963   0.52372   0.0000000000
H          H       0.97641   0.80994   0.79490   0.0000000000
H          H       0.02360   0.80994   0.20509   0.0000000000
H          H       0.02360   0.19006   0.20509   0.0000000000
H          H       0.97641   0.19006   0.79490   0.0000000000
H          H       0.29452   0.19023   0.52567   0.0000000000
H          H       0.70550   0.19023   0.47432   0.0000000000
H          H       0.70550   0.80977   0.47432   0.0000000000
H          H       0.29452   0.80977   0.52567   0.0000000000
C          C       0.97619   0.50000   0.80251   0.0000000000
C          C       0.02382   0.50000   0.19747   0.0000000000
C          C       0.30202   0.50000   0.52595   0.0000000000
C          C       0.69800   0.50000   0.47404   0.0000000000
O          O       0.44508   0.50000   0.59257   0.0000000000
O          O       0.55494   0.50000   0.40741   0.0000000000
H          H       0.07720   0.50000   0.05605   0.0000000000
H          H       0.92282   0.50000   0.94394   0.0000000000
C          C       0.52112   0.50000   0.35854   0.0000000000
C          C       0.55096   0.50000   0.30823   0.0000000000
C          C       0.51642   0.50000   0.25844   0.0000000000
C          C       0.54563   0.50987   0.20582   0.0000000000
O          O       0.46203   0.50195   0.36030   0.0000000000
H          H       0.58450   0.39023   0.30314   0.0000000000
H          H       0.56759   0.65404   0.31485   0.0000000000
H          H       0.48282   0.60938   0.26348   0.0000000000
H          H       0.49989   0.34570   0.25180   0.0000000000
O          O       0.60464   0.52413   0.20530   0.0000000000
O          O       0.51518   0.51062   0.15478   0.0000000000
H          H       0.61835   0.52966   0.16405   0.0000000000
C          C       0.47890   0.50000   0.64144   0.0000000000
C          C       0.44906   0.50000   0.69175   0.0000000000
C          C       0.48360   0.50000   0.74155   0.0000000000
C          C       0.45439   0.50987   0.79416   0.0000000000
O          O       0.53799   0.50195   0.63969   0.0000000000
H          H       0.41551   0.39023   0.69685   0.0000000000
H          H       0.43243   0.65404   0.68513   0.0000000000
H          H       0.51720   0.60938   0.73650   0.0000000000
H          H       0.50012   0.34570   0.74819   0.0000000000
O          O       0.39538   0.52413   0.79468   0.0000000000
O          O       0.48483   0.51062   0.84520   0.0000000000
H          H       0.38167   0.52966   0.83593   0.0000000000
N          N       0.35464   0.50000   0.53073   0.0000000000
N          N       0.64538   0.50000   0.46925   0.0000000000
N          N       0.02805   0.50000   0.14475   0.0000000000
N          N       0.97197   0.50000   0.85523   0.0000000000
N          N       0.05438   0.50000   0.56422   0.0000000000
N          N       0.94564   0.50000   0.43576   0.0000000000
H          H       0.02970   0.50000   0.53508   0.0000000000
H          H       0.97031   0.50000   0.46490   0.0000000000
