data_HP-COF-1
_audit_creation_date              0000-00-00
_audit_creation_method            'LanYouShi'
_symmetry_space_group_name_H-M    'P1'
_cell_length_a                    35.0000000
_cell_length_b                    35.0000000
_cell_length_c                    3.4400001
_cell_angle_alpha                 90.0000000
_cell_angle_beta                  90.0000000
_cell_angle_gamma                 120.0000000
loop_
_atom_site_label
_atom_site_type_symbol
_atom_site_fract_x
_atom_site_fract_y
_atom_site_fract_z
_atom_site_U_iso_or_equiv
_atom_site_adp_type
_atom_site_occupancy
        H1          H  0.6887700  0.8223500  0.0000000    0.00000       Uiso       1.00
        C1          C  0.7227900  0.8297500  0.0000000    0.00000       Uiso       1.00
        N1          N  0.7542800  0.8704800  0.0000000    0.00000       Uiso       1.00
        N2          N  0.7447300  0.9048200  0.0000000    0.00000       Uiso       1.00
        H2          H  0.8101700  0.9531800  0.0000000    0.00000       Uiso       1.00
        C2          C  0.7761000  0.9456000  0.0000000    0.00000       Uiso       1.00
        C3          C  0.7663000  0.9820600  0.0000000    0.00000       Uiso       1.00
        C4          C  0.7226700  0.9738900  0.0000000    0.00000       Uiso       1.00
        H3          H  0.6969100  0.9399500  0.0000000    0.00000       Uiso       1.00
        C5          C  0.6658700  0.9997100  0.0000000    0.00000       Uiso       1.00
        H4          H  0.6328500  0.9273400  0.0000000    0.00000       Uiso       1.00
        C6          C  0.6293400  0.9561400  0.0000000    0.00000       Uiso       1.00
        C7          C  0.5859900  0.9480100  0.0000000    0.00000       Uiso       1.00
        H5          H  0.5590700  0.9141900  0.0000000    0.00000       Uiso       1.00
        C8          C  0.5772900  0.9828200  0.0000000    0.00000       Uiso       1.00
        C9          C  0.5311500  0.9732200  0.0000000    0.00000       Uiso       1.00
        H6          H  0.5045800  0.9391800  0.0000000    0.00000       Uiso       1.00
        N3          N  0.4780700  0.9952800  0.0000000    0.00000       Uiso       1.00
        H7          H  0.3929600  0.9461800  0.0000000    0.00000       Uiso       1.00
       C10          C  0.3872500  0.9738600  0.0000000    0.00000       Uiso       1.00
       C11          C  0.3438200  0.9655100  0.0000000    0.00000       Uiso       1.00
        H8          H  0.3187000  0.9312801  0.0000000    0.00000       Uiso       1.00
       C12          C  0.2869300  0.9913000  0.0000000    0.00000       Uiso       1.00
        H9          H  0.2548300  0.9193900  0.0000000    0.00000       Uiso       1.00
       C13          C  0.2505100  0.9477200  0.0000000    0.00000       Uiso       1.00
       C14          C  0.2068800  0.9392100  0.0000000    0.00000       Uiso       1.00
       C15          C  0.1987500  0.9737900  0.0000000    0.00000       Uiso       1.00
       H10          H  0.1651500  0.9682600  0.0000000    0.00000       Uiso       1.00
       H11          H  0.1776500  0.8664200  0.0000000    0.00000       Uiso       1.00
       C16          C  0.1702500  0.8930400  0.0000000    0.00000       Uiso       1.00
        N4          N  0.1295200  0.8838000  0.0000000    0.00000       Uiso       1.00
        N5          N  0.0951800  0.8399100  0.0000000    0.00000       Uiso       1.00
       H12          H  0.0468200  0.8569900  0.0000000    0.00000       Uiso       1.00
       C17          C  0.0544000  0.8305000  0.0000000    0.00000       Uiso       1.00
       C18          C  0.0179400  0.7842400  0.0000000    0.00000       Uiso       1.00
       C19          C  0.0261100  0.7487800  0.0000000    0.00000       Uiso       1.00
       H13          H  0.0600500  0.7569600  0.0000000    0.00000       Uiso       1.00
       C20          C  0.0002900  0.6661600  0.0000000    0.00000       Uiso       1.00
       H14          H  0.0726600  0.7055100  0.0000000    0.00000       Uiso       1.00
       C21          C  0.0438600  0.6732000  0.0000000    0.00000       Uiso       1.00
       C22          C  0.0519900  0.6379800  0.0000000    0.00000       Uiso       1.00
       H15          H  0.0858100  0.6448800  0.0000000    0.00000       Uiso       1.00
       C23          C  0.0171800  0.5944700  0.0000000    0.00000       Uiso       1.00
       C24          C  0.0267800  0.5579300  0.0000000    0.00000       Uiso       1.00
       H16          H  0.0608200  0.5654000  0.0000000    0.00000       Uiso       1.00
        N6          N  0.0047200  0.4827900  0.0000000    0.00000       Uiso       1.00
       H17          H  0.0538200  0.4467800  0.0000000    0.00000       Uiso       1.00
       C25          C  0.0261400  0.4133900  0.0000000    0.00000       Uiso       1.00
       C26          C  0.0344900  0.3783100  0.0000000    0.00000       Uiso       1.00
       H18          H  0.0687200  0.3874200  0.0000000    0.00000       Uiso       1.00
       C27          C  0.0087000  0.2956300  0.0000000    0.00000       Uiso       1.00
       H19          H  0.0806100  0.3354400  0.0000000    0.00000       Uiso       1.00
       C28          C  0.0522800  0.3027900  0.0000000    0.00000       Uiso       1.00
       C29          C  0.0607900  0.2676700  0.0000000    0.00000       Uiso       1.00
       C30          C  0.0262100  0.2249600  0.0000000    0.00000       Uiso       1.00
       H20          H  0.0317400  0.1968900  0.0000000    0.00000       Uiso       1.00
       H21          H  0.1335800  0.3112300  0.0000000    0.00000       Uiso       1.00
       C31          C  0.1069600  0.2772100  0.0000000    0.00000       Uiso       1.00
        N7          N  0.1162000  0.2457200  0.0000000    0.00000       Uiso       1.00
        N8          N  0.1600900  0.2552700  0.0000000    0.00000       Uiso       1.00
       H22          H  0.1430100  0.1898300  0.0000000    0.00000       Uiso       1.00
       C32          C  0.1695000  0.2239000  0.0000000    0.00000       Uiso       1.00
       C33          C  0.2157600  0.2337000  0.0000000    0.00000       Uiso       1.00
       C34          C  0.2512200  0.2773300  0.0000000    0.00000       Uiso       1.00
       H23          H  0.2430400  0.3030900  0.0000000    0.00000       Uiso       1.00
       C35          C  0.3338400  0.3341300  0.0000000    0.00000       Uiso       1.00
       H24          H  0.2944900  0.3671500  0.0000000    0.00000       Uiso       1.00
       C36          C  0.3268000  0.3706600  0.0000000    0.00000       Uiso       1.00
       C37          C  0.3620200  0.4140100  0.0000000    0.00000       Uiso       1.00
       H25          H  0.3551200  0.4409300  0.0000000    0.00000       Uiso       1.00
       C38          C  0.4055300  0.4227100  0.0000000    0.00000       Uiso       1.00
       C39          C  0.4420700  0.4688500  0.0000000    0.00000       Uiso       1.00
       H26          H  0.4346000  0.4954200  0.0000000    0.00000       Uiso       1.00
        N9          N  0.5172101  0.5219300  0.0000000    0.00000       Uiso       1.00
       H27          H  0.5532200  0.6070400  0.0000000    0.00000       Uiso       1.00
       C40          C  0.5866100  0.6127501  0.0000000    0.00000       Uiso       1.00
       C41          C  0.6216900  0.6561800  0.0000000    0.00000       Uiso       1.00
       H28          H  0.6125800  0.6813000  0.0000000    0.00000       Uiso       1.00
       C42          C  0.7043700  0.7130700  0.0000000    0.00000       Uiso       1.00
       H29          H  0.6645600  0.7451700  0.0000000    0.00000       Uiso       1.00
       C43          C  0.6972100  0.7494900  0.0000000    0.00000       Uiso       1.00
       C44          C  0.7323300  0.7931200  0.0000000    0.00000       Uiso       1.00
       C45          C  0.7750400  0.8012500  0.0000000    0.00000       Uiso       1.00
       H30          H  0.8031100  0.8348500  0.0000000    0.00000       Uiso       1.00
       H31          H  0.3112300  0.1776500  0.0000000    0.00000       Uiso       1.00
       C46          C  0.2772100  0.1702500  0.0000000    0.00000       Uiso       1.00
       N10          N  0.2457200  0.1295200  0.0000000    0.00000       Uiso       1.00
       N11          N  0.2552700  0.0951800  0.0000000    0.00000       Uiso       1.00
       H32          H  0.1898300  0.0468200  0.0000000    0.00000       Uiso       1.00
       C47          C  0.2239000  0.0544000  0.0000000    0.00000       Uiso       1.00
       C48          C  0.2337000  0.0179400  0.0000000    0.00000       Uiso       1.00
       C49          C  0.2773300  0.0261100  0.0000000    0.00000       Uiso       1.00
       H33          H  0.3030900  0.0600500  0.0000000    0.00000       Uiso       1.00
       C50          C  0.3341300  0.0002900  0.0000000    0.00000       Uiso       1.00
       H34          H  0.3671500  0.0726600  0.0000000    0.00000       Uiso       1.00
       C51          C  0.3706600  0.0438600  0.0000000    0.00000       Uiso       1.00
       C52          C  0.4140100  0.0519900  0.0000000    0.00000       Uiso       1.00
       H35          H  0.4409300  0.0858100  0.0000000    0.00000       Uiso       1.00
       C53          C  0.4227100  0.0171800  0.0000000    0.00000       Uiso       1.00
       C54          C  0.4688500  0.0267800  0.0000000    0.00000       Uiso       1.00
       H36          H  0.4954199  0.0608200  0.0000000    0.00000       Uiso       1.00
       N12          N  0.5219300  0.0047200  0.0000000    0.00000       Uiso       1.00
       H37          H  0.6070400  0.0538200  0.0000000    0.00000       Uiso       1.00
       C55          C  0.6127500  0.0261400  0.0000000    0.00000       Uiso       1.00
       C56          C  0.6561800  0.0344900  0.0000000    0.00000       Uiso       1.00
       H38          H  0.6813000  0.0687200  0.0000000    0.00000       Uiso       1.00
       C57          C  0.7130700  0.0087000  0.0000000    0.00000       Uiso       1.00
       H39          H  0.7451700  0.0806100  0.0000000    0.00000       Uiso       1.00
       C58          C  0.7494900  0.0522800  0.0000000    0.00000       Uiso       1.00
       C59          C  0.7931200  0.0607900  0.0000000    0.00000       Uiso       1.00
       C60          C  0.8012500  0.0262100  0.0000000    0.00000       Uiso       1.00
       H40          H  0.8348500  0.0317400  0.0000000    0.00000       Uiso       1.00
       H41          H  0.8223500  0.1335800  0.0000000    0.00000       Uiso       1.00
       C61          C  0.8297500  0.1069600  0.0000000    0.00000       Uiso       1.00
       N13          N  0.8704800  0.1162000  0.0000000    0.00000       Uiso       1.00
       N14          N  0.9048200  0.1600900  0.0000000    0.00000       Uiso       1.00
       H42          H  0.9531800  0.1430100  0.0000000    0.00000       Uiso       1.00
       C62          C  0.9456000  0.1695000  0.0000000    0.00000       Uiso       1.00
       C63          C  0.9820600  0.2157600  0.0000000    0.00000       Uiso       1.00
       C64          C  0.9738900  0.2512200  0.0000000    0.00000       Uiso       1.00
       H43          H  0.9399500  0.2430400  0.0000000    0.00000       Uiso       1.00
       C65          C  0.9997100  0.3338400  0.0000000    0.00000       Uiso       1.00
       H44          H  0.9273400  0.2944900  0.0000000    0.00000       Uiso       1.00
       C66          C  0.9561400  0.3268000  0.0000000    0.00000       Uiso       1.00
       C67          C  0.9480100  0.3620200  0.0000000    0.00000       Uiso       1.00
       H45          H  0.9141900  0.3551200  0.0000000    0.00000       Uiso       1.00
       C68          C  0.9828200  0.4055300  0.0000000    0.00000       Uiso       1.00
       C69          C  0.9732200  0.4420700  0.0000000    0.00000       Uiso       1.00
       H46          H  0.9391800  0.4346000  0.0000000    0.00000       Uiso       1.00
       N15          N  0.9952800  0.5172101  0.0000000    0.00000       Uiso       1.00
       H47          H  0.9461800  0.5532200  0.0000000    0.00000       Uiso       1.00
       C70          C  0.9738600  0.5866100  0.0000000    0.00000       Uiso       1.00
       C71          C  0.9655100  0.6216900  0.0000000    0.00000       Uiso       1.00
       H48          H  0.9312801  0.6125801  0.0000000    0.00000       Uiso       1.00
       C72          C  0.9913000  0.7043700  0.0000000    0.00000       Uiso       1.00
       H49          H  0.9193901  0.6645600  0.0000000    0.00000       Uiso       1.00
       C73          C  0.9477200  0.6972100  0.0000000    0.00000       Uiso       1.00
       C74          C  0.9392100  0.7323300  0.0000000    0.00000       Uiso       1.00
       C75          C  0.9737900  0.7750400  0.0000000    0.00000       Uiso       1.00
       H50          H  0.9682600  0.8031100  0.0000000    0.00000       Uiso       1.00
       H51          H  0.8664200  0.6887700  0.0000000    0.00000       Uiso       1.00
       C76          C  0.8930400  0.7227900  0.0000000    0.00000       Uiso       1.00
       N16          N  0.8838000  0.7542800  0.0000000    0.00000       Uiso       1.00
       N17          N  0.8399100  0.7447300  0.0000000    0.00000       Uiso       1.00
       H52          H  0.8569900  0.8101700  0.0000000    0.00000       Uiso       1.00
       C77          C  0.8305000  0.7761000  0.0000000    0.00000       Uiso       1.00
       C78          C  0.7842400  0.7663000  0.0000000    0.00000       Uiso       1.00
       C79          C  0.7487800  0.7226700  0.0000000    0.00000       Uiso       1.00
       H53          H  0.7569600  0.6969100  0.0000000    0.00000       Uiso       1.00
       C80          C  0.6661600  0.6658700  0.0000000    0.00000       Uiso       1.00
       H54          H  0.7055100  0.6328500  0.0000000    0.00000       Uiso       1.00
       C81          C  0.6732000  0.6293400  0.0000000    0.00000       Uiso       1.00
       C82          C  0.6379800  0.5859900  0.0000000    0.00000       Uiso       1.00
       H55          H  0.6448800  0.5590699  0.0000000    0.00000       Uiso       1.00
       C83          C  0.5944700  0.5772900  0.0000000    0.00000       Uiso       1.00
       C84          C  0.5579300  0.5311500  0.0000000    0.00000       Uiso       1.00
       H56          H  0.5654000  0.5045800  0.0000000    0.00000       Uiso       1.00
       N18          N  0.4827900  0.4780700  0.0000000    0.00000       Uiso       1.00
       H57          H  0.4467800  0.3929600  0.0000000    0.00000       Uiso       1.00
       C85          C  0.4133900  0.3872500  0.0000000    0.00000       Uiso       1.00
       C86          C  0.3783100  0.3438200  0.0000000    0.00000       Uiso       1.00
       H58          H  0.3874200  0.3187000  0.0000000    0.00000       Uiso       1.00
       C87          C  0.2956300  0.2869300  0.0000000    0.00000       Uiso       1.00
       H59          H  0.3354400  0.2548300  0.0000000    0.00000       Uiso       1.00
       C88          C  0.3027900  0.2505100  0.0000000    0.00000       Uiso       1.00
       C89          C  0.2676700  0.2068800  0.0000000    0.00000       Uiso       1.00
       C90          C  0.2249600  0.1987500  0.0000000    0.00000       Uiso       1.00
       H60          H  0.1968900  0.1651500  0.0000000    0.00000       Uiso       1.00
