data_crystal
 
_cell_length_a    39.89000
_cell_length_b    39.89000
_cell_length_c    3.47000
_cell_angle_alpha 90.00000
_cell_angle_beta  90.00000
_cell_angle_gamma 120.00000
 
_symmetry_space_group_name_Hall 'P 1'
_symmetry_space_group_name_H-M  'P 1'
 
loop_
_symmetry_equiv_pos_as_xyz
 'x,y,z' 
 
loop_
_atom_site_label
_atom_site_type_symbol
_atom_site_fract_x
_atom_site_fract_y
_atom_site_fract_z
_atom_site_charge
H          H       0.72600   0.84920   0.00000   0.0000000000
C          C       0.75564   0.85506   0.00000   0.0000000000
N          N       0.78383   0.89053   0.00000   0.0000000000
N          N       0.77644   0.92133   0.00000   0.0000000000
H          H       0.83428   0.96262   0.00000   0.0000000000
C          C       0.80464   0.95679   0.00000   0.0000000000
C          C       0.79719   0.98949   0.00000   0.0000000000
C          C       0.75929   0.98333   0.00000   0.0000000000
H          H       0.73468   0.95418   0.00000   0.0000000000
C          C       0.64265   0.99613   0.00000   0.0000000000
H          H       0.61594   0.93382   0.00000   0.0000000000
C          C       0.61122   0.95830   0.00000   0.0000000000
C          C       0.57340   0.95185   0.00000   0.0000000000
H          H       0.54941   0.92238   0.00000   0.0000000000
C          C       0.56663   0.98315   0.00000   0.0000000000
C          C       0.52644   0.97558   0.00000   0.0000000000
H          H       0.50272   0.94593   0.00000   0.0000000000
N          N       0.48089   0.99626   0.00000   0.0000000000
H          H       0.40595   0.95417   0.00000   0.0000000000
C          C       0.40163   0.97888   0.00000   0.0000000000
C          C       0.36383   0.97249   0.00000   0.0000000000
H          H       0.33968   0.94310   0.00000   0.0000000000
C          C       0.31847   0.99726   0.00000   0.0000000000
C          C       0.28589   0.99174   0.00000   0.0000000000
C          C       0.24703   0.98520   0.00000   0.0000000000
H          H       0.22074   0.92315   0.00000   0.0000000000
C          C       0.21560   0.94739   0.00000   0.0000000000
C          C       0.17760   0.94075   0.00000   0.0000000000
C          C       0.17142   0.97250   0.00000   0.0000000000
H          H       0.14220   0.96774   0.00000   0.0000000000
H          H       0.15080   0.87680   0.00000   0.0000000000
C          C       0.14494   0.90058   0.00000   0.0000000000
N          N       0.10947   0.89330   0.00000   0.0000000000
N          N       0.07867   0.85511   0.00000   0.0000000000
H          H       0.03738   0.87166   0.00000   0.0000000000
C          C       0.04321   0.84785   0.00000   0.0000000000
C          C       0.01051   0.80770   0.00000   0.0000000000
C          C       0.01667   0.77596   0.00000   0.0000000000
H          H       0.04582   0.78050   0.00000   0.0000000000
C          C       0.00387   0.64652   0.00000   0.0000000000
H          H       0.06618   0.68212   0.00000   0.0000000000
C          C       0.04170   0.65292   0.00000   0.0000000000
C          C       0.04815   0.62155   0.00000   0.0000000000
H          H       0.07762   0.62703   0.00000   0.0000000000
C          C       0.01685   0.58348   0.00000   0.0000000000
C          C       0.02442   0.55086   0.00000   0.0000000000
H          H       0.05407   0.55679   0.00000   0.0000000000
N          N       0.00374   0.48463   0.00000   0.0000000000
H          H       0.04583   0.45178   0.00000   0.0000000000
C          C       0.02112   0.42275   0.00000   0.0000000000
C          C       0.02751   0.39134   0.00000   0.0000000000
H          H       0.05690   0.39658   0.00000   0.0000000000
C          C       0.00274   0.32121   0.00000   0.0000000000
C          C       0.00826   0.29415   0.00000   0.0000000000
C          C       0.01480   0.26183   0.00000   0.0000000000
H          H       0.07685   0.29759   0.00000   0.0000000000
C          C       0.05261   0.26821   0.00000   0.0000000000
C          C       0.05925   0.23685   0.00000   0.0000000000
C          C       0.02750   0.19892   0.00000   0.0000000000
H          H       0.03226   0.17446   0.00000   0.0000000000
H          H       0.12320   0.27400   0.00000   0.0000000000
C          C       0.09942   0.24436   0.00000   0.0000000000
N          N       0.10670   0.21617   0.00000   0.0000000000
N          N       0.14489   0.22356   0.00000   0.0000000000
H          H       0.12834   0.16572   0.00000   0.0000000000
C          C       0.15215   0.19536   0.00000   0.0000000000
C          C       0.19230   0.20281   0.00000   0.0000000000
C          C       0.22404   0.24071   0.00000   0.0000000000
H          H       0.21950   0.26532   0.00000   0.0000000000
C          C       0.35348   0.35735   0.00000   0.0000000000
H          H       0.31788   0.38406   0.00000   0.0000000000
C          C       0.34708   0.38878   0.00000   0.0000000000
C          C       0.37845   0.42660   0.00000   0.0000000000
H          H       0.37297   0.45059   0.00000   0.0000000000
C          C       0.41652   0.43337   0.00000   0.0000000000
C          C       0.44914   0.47356   0.00000   0.0000000000
H          H       0.44321   0.49728   0.00000   0.0000000000
N          N       0.51537   0.51911   0.00000   0.0000000000
H          H       0.54822   0.59405   0.00000   0.0000000000
C          C       0.57725   0.59837   0.00000   0.0000000000
C          C       0.60866   0.63617   0.00000   0.0000000000
H          H       0.60342   0.66032   0.00000   0.0000000000
C          C       0.67879   0.68153   0.00000   0.0000000000
C          C       0.70585   0.71411   0.00000   0.0000000000
C          C       0.73817   0.75297   0.00000   0.0000000000
H          H       0.70241   0.77926   0.00000   0.0000000000
C          C       0.73179   0.78440   0.00000   0.0000000000
C          C       0.76315   0.82240   0.00000   0.0000000000
C          C       0.80108   0.82858   0.00000   0.0000000000
H          H       0.82554   0.85780   0.00000   0.0000000000
H          H       0.27400   0.15080   0.00000   0.0000000000
C          C       0.24436   0.14494   0.00000   0.0000000000
N          N       0.21617   0.10947   0.00000   0.0000000000
N          N       0.22356   0.07867   0.00000   0.0000000000
H          H       0.16572   0.03738   0.00000   0.0000000000
C          C       0.19536   0.04321   0.00000   0.0000000000
C          C       0.20281   0.01051   0.00000   0.0000000000
C          C       0.24071   0.01667   0.00000   0.0000000000
H          H       0.26532   0.04582   0.00000   0.0000000000
C          C       0.35735   0.00387   0.00000   0.0000000000
H          H       0.38406   0.06618   0.00000   0.0000000000
C          C       0.38878   0.04170   0.00000   0.0000000000
C          C       0.42660   0.04815   0.00000   0.0000000000
H          H       0.45059   0.07762   0.00000   0.0000000000
C          C       0.43337   0.01685   0.00000   0.0000000000
C          C       0.47356   0.02442   0.00000   0.0000000000
H          H       0.49728   0.05407   0.00000   0.0000000000
N          N       0.51911   0.00374   0.00000   0.0000000000
H          H       0.59405   0.04583   0.00000   0.0000000000
C          C       0.59837   0.02112   0.00000   0.0000000000
C          C       0.63617   0.02751   0.00000   0.0000000000
H          H       0.66032   0.05690   0.00000   0.0000000000
C          C       0.68153   0.00274   0.00000   0.0000000000
C          C       0.71411   0.00826   0.00000   0.0000000000
C          C       0.75297   0.01480   0.00000   0.0000000000
H          H       0.77926   0.07685   0.00000   0.0000000000
C          C       0.78440   0.05261   0.00000   0.0000000000
C          C       0.82240   0.05925   0.00000   0.0000000000
C          C       0.82858   0.02750   0.00000   0.0000000000
H          H       0.85780   0.03226   0.00000   0.0000000000
H          H       0.84920   0.12320   0.00000   0.0000000000
C          C       0.85506   0.09942   0.00000   0.0000000000
N          N       0.89053   0.10670   0.00000   0.0000000000
N          N       0.92133   0.14489   0.00000   0.0000000000
H          H       0.96262   0.12834   0.00000   0.0000000000
C          C       0.95679   0.15215   0.00000   0.0000000000
C          C       0.98949   0.19230   0.00000   0.0000000000
C          C       0.98333   0.22404   0.00000   0.0000000000
H          H       0.95418   0.21950   0.00000   0.0000000000
C          C       0.99613   0.35348   0.00000   0.0000000000
H          H       0.93382   0.31788   0.00000   0.0000000000
C          C       0.95830   0.34708   0.00000   0.0000000000
C          C       0.95185   0.37845   0.00000   0.0000000000
H          H       0.92238   0.37297   0.00000   0.0000000000
C          C       0.98315   0.41652   0.00000   0.0000000000
C          C       0.97558   0.44914   0.00000   0.0000000000
H          H       0.94593   0.44321   0.00000   0.0000000000
N          N       0.99626   0.51537   0.00000   0.0000000000
H          H       0.95417   0.54822   0.00000   0.0000000000
C          C       0.97888   0.57725   0.00000   0.0000000000
C          C       0.97249   0.60866   0.00000   0.0000000000
H          H       0.94310   0.60342   0.00000   0.0000000000
C          C       0.99726   0.67879   0.00000   0.0000000000
C          C       0.99174   0.70585   0.00000   0.0000000000
C          C       0.98520   0.73817   0.00000   0.0000000000
H          H       0.92315   0.70241   0.00000   0.0000000000
C          C       0.94739   0.73179   0.00000   0.0000000000
C          C       0.94075   0.76315   0.00000   0.0000000000
C          C       0.97250   0.80108   0.00000   0.0000000000
H          H       0.96774   0.82554   0.00000   0.0000000000
H          H       0.87680   0.72600   0.00000   0.0000000000
C          C       0.90058   0.75564   0.00000   0.0000000000
N          N       0.89330   0.78383   0.00000   0.0000000000
N          N       0.85511   0.77644   0.00000   0.0000000000
H          H       0.87166   0.83428   0.00000   0.0000000000
C          C       0.84785   0.80464   0.00000   0.0000000000
C          C       0.80770   0.79719   0.00000   0.0000000000
C          C       0.77596   0.75929   0.00000   0.0000000000
H          H       0.78050   0.73468   0.00000   0.0000000000
C          C       0.64652   0.64265   0.00000   0.0000000000
H          H       0.68212   0.61594   0.00000   0.0000000000
C          C       0.65292   0.61122   0.00000   0.0000000000
C          C       0.62155   0.57340   0.00000   0.0000000000
H          H       0.62703   0.54941   0.00000   0.0000000000
C          C       0.58348   0.56663   0.00000   0.0000000000
C          C       0.55086   0.52644   0.00000   0.0000000000
H          H       0.55679   0.50272   0.00000   0.0000000000
N          N       0.48463   0.48089   0.00000   0.0000000000
H          H       0.45178   0.40595   0.00000   0.0000000000
C          C       0.42275   0.40163   0.00000   0.0000000000
C          C       0.39134   0.36383   0.00000   0.0000000000
H          H       0.39658   0.33968   0.00000   0.0000000000
C          C       0.32121   0.31847   0.00000   0.0000000000
C          C       0.29415   0.28589   0.00000   0.0000000000
C          C       0.26183   0.24703   0.00000   0.0000000000
H          H       0.29759   0.22074   0.00000   0.0000000000
C          C       0.26821   0.21560   0.00000   0.0000000000
C          C       0.23685   0.17760   0.00000   0.0000000000
C          C       0.19892   0.17142   0.00000   0.0000000000
H          H       0.17446   0.14220   0.00000   0.0000000000
