data_crystal
 
_cell_length_a    5.00000
_cell_length_b    25.00000
_cell_length_c    25.00000
_cell_angle_alpha 90.00000
_cell_angle_beta  90.00000
_cell_angle_gamma 90.00000
 
_symmetry_space_group_name_Hall 'P 1'
_symmetry_space_group_name_H-M  'P 1'
 
loop_
_symmetry_equiv_pos_as_xyz
 'x,y,z' 
 
loop_
_atom_site_label
_atom_site_type_symbol
_atom_site_fract_x
_atom_site_fract_y
_atom_site_fract_z
_atom_site_charge
C          C       0.50000   0.78083   0.36249   0.0000000000
C          C       0.50000   0.78083   0.63751   0.0000000000
C          C       0.50000   0.21916   0.63751   0.0000000000
C          C       0.50000   0.21916   0.36249   0.0000000000
C          C       0.50000   0.63751   0.78084   0.0000000000
C          C       0.50000   0.63751   0.21916   0.0000000000
C          C       0.50000   0.36248   0.21916   0.0000000000
C          C       0.50000   0.36248   0.78084   0.0000000000
C          C       0.50000   0.72695   0.38006   0.0000000000
C          C       0.50000   0.72695   0.61994   0.0000000000
C          C       0.50000   0.27304   0.61994   0.0000000000
C          C       0.50000   0.27304   0.38006   0.0000000000
C          C       0.50000   0.61994   0.72695   0.0000000000
C          C       0.50000   0.61994   0.27305   0.0000000000
C          C       0.50000   0.38005   0.27305   0.0000000000
C          C       0.50000   0.38005   0.72695   0.0000000000
C          C       0.50000   0.71475   0.43531   0.0000000000
C          C       0.50000   0.71475   0.56469   0.0000000000
C          C       0.50000   0.28524   0.56469   0.0000000000
C          C       0.50000   0.28524   0.43531   0.0000000000
C          C       0.50000   0.56468   0.71476   0.0000000000
C          C       0.50000   0.56468   0.28524   0.0000000000
C          C       0.50000   0.43531   0.28524   0.0000000000
C          C       0.50000   0.43531   0.71476   0.0000000000
C          C       0.50000   0.75730   0.47216   0.0000000000
C          C       0.50000   0.75730   0.52784   0.0000000000
C          C       0.50000   0.24269   0.52784   0.0000000000
C          C       0.50000   0.24269   0.47216   0.0000000000
C          C       0.50000   0.52784   0.75730   0.0000000000
C          C       0.50000   0.52784   0.24270   0.0000000000
C          C       0.50000   0.47215   0.24270   0.0000000000
C          C       0.50000   0.47215   0.75730   0.0000000000
C          C       0.50000   0.81050   0.45473   0.0000000000
C          C       0.50000   0.81050   0.54527   0.0000000000
C          C       0.50000   0.18949   0.54527   0.0000000000
C          C       0.50000   0.18949   0.45473   0.0000000000
C          C       0.50000   0.54527   0.81050   0.0000000000
C          C       0.50000   0.54527   0.18950   0.0000000000
C          C       0.50000   0.45472   0.18950   0.0000000000
C          C       0.50000   0.45472   0.81050   0.0000000000
C          C       0.50000   0.82292   0.39992   0.0000000000
C          C       0.50000   0.82292   0.60008   0.0000000000
C          C       0.50000   0.17708   0.60008   0.0000000000
C          C       0.50000   0.17708   0.39992   0.0000000000
C          C       0.50000   0.60007   0.82292   0.0000000000
C          C       0.50000   0.60007   0.17708   0.0000000000
C          C       0.50000   0.39992   0.17708   0.0000000000
C          C       0.50000   0.39992   0.82292   0.0000000000
C          C       0.50000   0.68892   0.34481   0.0000000000
C          C       0.50000   0.68892   0.65519   0.0000000000
C          C       0.50000   0.31107   0.65519   0.0000000000
C          C       0.50000   0.31107   0.34481   0.0000000000
C          C       0.50000   0.65519   0.68893   0.0000000000
C          C       0.50000   0.65519   0.31107   0.0000000000
C          C       0.50000   0.34480   0.31107   0.0000000000
C          C       0.50000   0.34480   0.68893   0.0000000000
H          H       0.50000   0.79004   0.31783   0.0000000000
H          H       0.50000   0.79004   0.68217   0.0000000000
H          H       0.50000   0.20995   0.68217   0.0000000000
H          H       0.50000   0.20995   0.31783   0.0000000000
H          H       0.50000   0.68217   0.79005   0.0000000000
H          H       0.50000   0.68217   0.20995   0.0000000000
H          H       0.50000   0.31782   0.20995   0.0000000000
H          H       0.50000   0.31782   0.79005   0.0000000000
H          H       0.50000   0.67128   0.44907   0.0000000000
H          H       0.50000   0.67128   0.55093   0.0000000000
H          H       0.50000   0.32871   0.55093   0.0000000000
H          H       0.50000   0.32871   0.44907   0.0000000000
H          H       0.50000   0.55093   0.67128   0.0000000000
H          H       0.50000   0.55093   0.32872   0.0000000000
H          H       0.50000   0.44906   0.32872   0.0000000000
H          H       0.50000   0.44906   0.67128   0.0000000000
H          H       0.50000   0.86620   0.38557   0.0000000000
H          H       0.50000   0.86620   0.61443   0.0000000000
H          H       0.50218   0.13841   0.61341   0.0000000000
H          H       0.49782   0.13841   0.38659   0.0000000000
H          H       0.50207   0.61338   0.86161   0.0000000000
H          H       0.49793   0.61338   0.13839   0.0000000000
H          H       0.50207   0.38661   0.13839   0.0000000000
H          H       0.49793   0.38661   0.86161   0.0000000000
C          C       0.50000   0.50000   0.84771   0.0000000000
C          C       0.50000   0.50000   0.15229   0.0000000000
C          C       0.50000   0.14479   0.50000   0.0000000000
C          C       0.50000   0.85518   0.50000   0.0000000000
C          C       0.29591   0.48790   0.10149   0.0000000000
C          C       0.70409   0.48790   0.89851   0.0000000000
O          O       0.34412   0.47166   0.04521   0.0000000000
O          O       0.65588   0.47166   0.95479   0.0000000000
C          C       0.29591   0.51209   0.89851   0.0000000000
C          C       0.70409   0.51209   0.10149   0.0000000000
O          O       0.34412   0.52834   0.95479   0.0000000000
O          O       0.65588   0.52834   0.04521   0.0000000000
C          C       0.29144   0.09738   0.51340   0.0000000000
C          C       0.70856   0.09738   0.48660   0.0000000000
O          O       0.34334   0.04275   0.52979   0.0000000000
O          O       0.65666   0.04275   0.47021   0.0000000000
C          C       0.29127   0.90259   0.48677   0.0000000000
C          C       0.70873   0.90259   0.51323   0.0000000000
O          O       0.34276   0.95722   0.47033   0.0000000000
O          O       0.65724   0.95722   0.52967   0.0000000000
B          B       0.50000   0.50000   0.00000   0.0000000000
B          B       0.50000   0.99998   0.50000   0.0000000000
H          H       0.16272   0.45769   0.11684   0.0000000000
H          H       0.83728   0.45769   0.88316   0.0000000000
H          H       0.20830   0.52666   0.09482   0.0000000000
H          H       0.79170   0.52666   0.90518   0.0000000000
H          H       0.20830   0.47333   0.90518   0.0000000000
H          H       0.79170   0.47333   0.09482   0.0000000000
H          H       0.16272   0.54230   0.88316   0.0000000000
H          H       0.83728   0.54230   0.11684   0.0000000000
H          H       0.20394   0.09071   0.47475   0.0000000000
H          H       0.79606   0.09071   0.52525   0.0000000000
H          H       0.16295   0.11430   0.54371   0.0000000000
H          H       0.83705   0.11430   0.45629   0.0000000000
H          H       0.20442   0.90927   0.52549   0.0000000000
H          H       0.79558   0.90927   0.47451   0.0000000000
H          H       0.16264   0.88559   0.45655   0.0000000000
H          H       0.83736   0.88559   0.54345   0.0000000000
N          N       1.18091  -0.35571   0.97400   0.0000000000
C          C       1.18026  -0.34753   1.03238   0.0000000000
H          H       1.24933  -0.39318   0.96661   0.0000000000
C          C       0.91858  -0.35002   0.94775   0.0000000000
H          H       1.31051  -0.32892   0.95717   0.0000000000
H          H       1.11131  -0.30732   1.04234   0.0000000000
H          H       1.38407  -0.35230   1.04705   0.0000000000
H          H       1.05259  -0.37699   1.05202   0.0000000000
H          H       0.77896  -0.38004   0.96272   0.0000000000
H          H       0.94493  -0.35592   0.90488   0.0000000000
H          H       0.83626  -0.31013   0.95441   0.0000000000
N          N      -0.00344   0.00096  -0.37811   0.0000000000
C          C       0.06066  -0.04708  -0.34639   0.0000000000
H          H      -0.16106  -0.00782  -0.40227   0.0000000000
C          C      -0.06713   0.04896  -0.34631   0.0000000000
H          H       0.15383   0.00974  -0.40235   0.0000000000
H          H       0.24331  -0.04092  -0.32328   0.0000000000
H          H       0.09120  -0.08054  -0.37353   0.0000000000
H          H      -0.10365  -0.05709  -0.31943   0.0000000000
H          H      -0.24935   0.04275  -0.32307   0.0000000000
H          H      -0.09829   0.08243  -0.37340   0.0000000000
H          H       0.09764   0.05896  -0.31945   0.0000000000
