data_ICOF-1
_audit_creation_date              0000-00-00
_audit_creation_method            'LanYouShi'
_symmetry_space_group_name_H-M    'P1'
_cell_length_a                    5.0000000
_cell_length_b                    25.0000000
_cell_length_c                    25.0000000
_cell_angle_alpha                 90.0000000
_cell_angle_beta                  90.0000000
_cell_angle_gamma                 90.0000000
loop_
_atom_site_label
_atom_site_type_symbol
_atom_site_fract_x
_atom_site_fract_y
_atom_site_fract_z
_atom_site_U_iso_or_equiv
_atom_site_adp_type
_atom_site_occupancy
        C1          C  0.5000000  0.7808321  0.3624886    0.00000       Uiso       1.00
        C2          C  0.5000000  0.7808321  0.6375114    0.00000       Uiso       1.00
        C3          C  0.5000000  0.2191583  0.6375114    0.00000       Uiso       1.00
        C4          C  0.5000000  0.2191583  0.3624886    0.00000       Uiso       1.00
        C5          C  0.5000000  0.6375067  0.7808369    0.00000       Uiso       1.00
        C6          C  0.5000000  0.6375067  0.2191631    0.00000       Uiso       1.00
        C7          C  0.5000000  0.3624837  0.2191631    0.00000       Uiso       1.00
        C8          C  0.5000000  0.3624837  0.7808369    0.00000       Uiso       1.00
        C9          C  0.5000000  0.7269476  0.3800553    0.00000       Uiso       1.00
       C10          C  0.5000000  0.7269476  0.6199446    0.00000       Uiso       1.00
       C11          C  0.5000000  0.2730428  0.6199446    0.00000       Uiso       1.00
       C12          C  0.5000000  0.2730428  0.3800553    0.00000       Uiso       1.00
       C13          C  0.5000000  0.6199399  0.7269524    0.00000       Uiso       1.00
       C14          C  0.5000000  0.6199399  0.2730475    0.00000       Uiso       1.00
       C15          C  0.5000000  0.3800506  0.2730475    0.00000       Uiso       1.00
       C16          C  0.5000000  0.3800506  0.7269524    0.00000       Uiso       1.00
       C17          C  0.5000000  0.7147538  0.4353147    0.00000       Uiso       1.00
       C18          C  0.5000000  0.7147538  0.5646852    0.00000       Uiso       1.00
       C19          C  0.5000000  0.2852366  0.5646852    0.00000       Uiso       1.00
       C20          C  0.5000000  0.2852366  0.4353147    0.00000       Uiso       1.00
       C21          C  0.5000000  0.5646805  0.7147586    0.00000       Uiso       1.00
       C22          C  0.5000000  0.5646805  0.2852414    0.00000       Uiso       1.00
       C23          C  0.5000000  0.4353100  0.2852414    0.00000       Uiso       1.00
       C24          C  0.5000000  0.4353100  0.7147586    0.00000       Uiso       1.00
       C25          C  0.5000000  0.7572992  0.4721553    0.00000       Uiso       1.00
       C26          C  0.5000000  0.7572992  0.5278447    0.00000       Uiso       1.00
       C27          C  0.5000000  0.2426911  0.5278447    0.00000       Uiso       1.00
       C28          C  0.5000000  0.2426911  0.4721553    0.00000       Uiso       1.00
       C29          C  0.5000000  0.5278399  0.7573041    0.00000       Uiso       1.00
       C30          C  0.5000000  0.5278399  0.2426959    0.00000       Uiso       1.00
       C31          C  0.5000000  0.4721506  0.2426959    0.00000       Uiso       1.00
       C32          C  0.5000000  0.4721506  0.7573041    0.00000       Uiso       1.00
       C33          C  0.5000000  0.8104966  0.4547291    0.00000       Uiso       1.00
       C34          C  0.5000000  0.8104966  0.5452710    0.00000       Uiso       1.00
       C35          C  0.5000000  0.1894938  0.5452710    0.00000       Uiso       1.00
       C36          C  0.5000000  0.1894938  0.4547291    0.00000       Uiso       1.00
       C37          C  0.5000000  0.5452662  0.8105014    0.00000       Uiso       1.00
       C38          C  0.5000000  0.5452662  0.1894986    0.00000       Uiso       1.00
       C39          C  0.5000000  0.4547243  0.1894986    0.00000       Uiso       1.00
       C40          C  0.5000000  0.4547243  0.8105014    0.00000       Uiso       1.00
       C41          C  0.5000000  0.8229153  0.3999241    0.00000       Uiso       1.00
       C42          C  0.5000000  0.8229153  0.6000759    0.00000       Uiso       1.00
       C43          C  0.5000000  0.1770751  0.6000759    0.00000       Uiso       1.00
       C44          C  0.5000000  0.1770751  0.3999241    0.00000       Uiso       1.00
       C45          C  0.5000000  0.6000711  0.8229201    0.00000       Uiso       1.00
       C46          C  0.5000000  0.6000711  0.1770799    0.00000       Uiso       1.00
       C47          C  0.5000000  0.3999193  0.1770799    0.00000       Uiso       1.00
       C48          C  0.5000000  0.3999193  0.8229201    0.00000       Uiso       1.00
       C49          C  0.5000000  0.6889206  0.3448098    0.00000       Uiso       1.00
       C50          C  0.5000000  0.6889206  0.6551903    0.00000       Uiso       1.00
       C51          C  0.5000000  0.3110698  0.6551903    0.00000       Uiso       1.00
       C52          C  0.5000000  0.3110698  0.3448098    0.00000       Uiso       1.00
       C53          C  0.5000000  0.6551855  0.6889254    0.00000       Uiso       1.00
       C54          C  0.5000000  0.6551855  0.3110746    0.00000       Uiso       1.00
       C55          C  0.5000000  0.3448049  0.3110746    0.00000       Uiso       1.00
       C56          C  0.5000000  0.3448049  0.6889254    0.00000       Uiso       1.00
        H1          H  0.5000000  0.7900442  0.3178287    0.00000       Uiso       1.00
        H2          H  0.5000000  0.7900442  0.6821712    0.00000       Uiso       1.00
        H3          H  0.5000000  0.2099462  0.6821712    0.00000       Uiso       1.00
        H4          H  0.5000000  0.2099462  0.3178287    0.00000       Uiso       1.00
        H5          H  0.5000000  0.6821665  0.7900490    0.00000       Uiso       1.00
        H6          H  0.5000000  0.6821665  0.2099510    0.00000       Uiso       1.00
        H7          H  0.5000000  0.3178240  0.2099510    0.00000       Uiso       1.00
        H8          H  0.5000000  0.3178240  0.7900490    0.00000       Uiso       1.00
        H9          H  0.5000000  0.6712778  0.4490696    0.00000       Uiso       1.00
       H10          H  0.5000000  0.6712778  0.5509304    0.00000       Uiso       1.00
       H11          H  0.5000000  0.3287126  0.5509304    0.00000       Uiso       1.00
       H12          H  0.5000000  0.3287126  0.4490696    0.00000       Uiso       1.00
       H13          H  0.5000000  0.5509256  0.6712826    0.00000       Uiso       1.00
       H14          H  0.5000000  0.5509256  0.3287174    0.00000       Uiso       1.00
       H15          H  0.5000000  0.4490648  0.3287174    0.00000       Uiso       1.00
       H16          H  0.5000000  0.4490648  0.6712826    0.00000       Uiso       1.00
       H17          H  0.5000000  0.8661979  0.3855721    0.00000       Uiso       1.00
       H18          H  0.5000000  0.8661979  0.6144279    0.00000       Uiso       1.00
       H19          H  0.5021767  0.1384067  0.6134080    0.00000       Uiso       1.00
       H20          H  0.4978233  0.1384067  0.3865920    0.00000       Uiso       1.00
       H21          H  0.5020708  0.6133828  0.8616098    0.00000       Uiso       1.00
       H22          H  0.4979292  0.6133828  0.1383902    0.00000       Uiso       1.00
       H23          H  0.5020710  0.3866081  0.1383900    0.00000       Uiso       1.00
       H24          H  0.4979290  0.3866081  0.8616101    0.00000       Uiso       1.00
       C57          C  0.5000000  0.4999952  0.8477123    0.00000       Uiso       1.00
       C58          C  0.5000000  0.4999952  0.1522877    0.00000       Uiso       1.00
       C59          C  0.5000000  0.1447907  0.5000000    0.00000       Uiso       1.00
       C60          C  0.5000000  0.8551813  0.5000000    0.00000       Uiso       1.00
       C61          C  0.2959101  0.4879030  0.1014864    0.00000       Uiso       1.00
       C62          C  0.7040899  0.4879030  0.8985136    0.00000       Uiso       1.00
        O1          O  0.3441207  0.4716551  0.0452067    0.00000       Uiso       1.00
        O2          O  0.6558794  0.4716551  0.9547932    0.00000       Uiso       1.00
       C63          C  0.2959100  0.5120875  0.8985136    0.00000       Uiso       1.00
       C64          C  0.7040900  0.5120875  0.1014864    0.00000       Uiso       1.00
        O3          O  0.3441207  0.5283353  0.9547932    0.00000       Uiso       1.00
        O4          O  0.6558793  0.5283353  0.0452067    0.00000       Uiso       1.00
       C65          C  0.2914364  0.0973763  0.5133961    0.00000       Uiso       1.00
       C66          C  0.7085636  0.0973763  0.4866039    0.00000       Uiso       1.00
        O5          O  0.3433385  0.0427534  0.5297900    0.00000       Uiso       1.00
        O6          O  0.6566615  0.0427534  0.4702100    0.00000       Uiso       1.00
       C67          C  0.2912742  0.9025900  0.4867741    0.00000       Uiso       1.00
       C68          C  0.7087258  0.9025900  0.5132259    0.00000       Uiso       1.00
        O7          O  0.3427576  0.9572165  0.4703297    0.00000       Uiso       1.00
        O8          O  0.6572424  0.9572165  0.5296703    0.00000       Uiso       1.00
        B1          B  0.5000000  0.4999952  0.0000000    0.00000       Uiso       1.00
        B2          B  0.5000000  0.9999849  0.5000000    0.00000       Uiso       1.00
       H25          H  0.1627218  0.4576945  0.1168425    0.00000       Uiso       1.00
       H26          H  0.8372782  0.4576945  0.8831575    0.00000       Uiso       1.00
       H27          H  0.2082971  0.5266619  0.0948199    0.00000       Uiso       1.00
       H28          H  0.7917029  0.5266619  0.9051800    0.00000       Uiso       1.00
       H29          H  0.2082971  0.4733286  0.9051800    0.00000       Uiso       1.00
       H30          H  0.7917029  0.4733286  0.0948199    0.00000       Uiso       1.00
       H31          H  0.1627218  0.5422960  0.8831575    0.00000       Uiso       1.00
       H32          H  0.8372782  0.5422960  0.1168425    0.00000       Uiso       1.00
       H33          H  0.2039396  0.0907051  0.4747463    0.00000       Uiso       1.00
       H34          H  0.7960604  0.0907051  0.5252537    0.00000       Uiso       1.00
       H35          H  0.1629523  0.1142990  0.5437123    0.00000       Uiso       1.00
       H36          H  0.8370477  0.1142990  0.4562877    0.00000       Uiso       1.00
       H37          H  0.2044237  0.9092660  0.5254938    0.00000       Uiso       1.00
       H38          H  0.7955763  0.9092660  0.4745062    0.00000       Uiso       1.00
       H39          H  0.1626406  0.8855872  0.4565465    0.00000       Uiso       1.00
       H40          H  0.8373594  0.8855872  0.5434535    0.00000       Uiso       1.00
        N1          N  1.1809050 -0.3557068  0.9739968    0.00000       Uiso       1.00
        C1          C  1.1802557 -0.3475252  1.0323750    0.00000       Uiso       1.00
        H1          H  1.2493308 -0.3931825  0.9666129    0.00000       Uiso       1.00
        C2          C  0.9185832 -0.3500172  0.9477538    0.00000       Uiso       1.00
        H2          H  1.3105122 -0.3289235  0.9571672    0.00000       Uiso       1.00
        H3          H  1.1113131 -0.3073152  1.0423441    0.00000       Uiso       1.00
        H4          H  1.3840668 -0.3522994  1.0470464    0.00000       Uiso       1.00
        H5          H  1.0525943 -0.3769859  1.0520192    0.00000       Uiso       1.00
        H6          H  0.7789595 -0.3800412  0.9627225    0.00000       Uiso       1.00
        H7          H  0.9449252 -0.3559245  0.9048833    0.00000       Uiso       1.00
        H8          H  0.8362586 -0.3101302  0.9544139    0.00000       Uiso       1.00
        N1          N -0.0034375  0.0009557 -0.3781056    0.00000       Uiso       1.00
        C1          C  0.0606600 -0.0470800 -0.3463923    0.00000       Uiso       1.00
        H1          H -0.1610556 -0.0078218 -0.4022715    0.00000       Uiso       1.00
        C2          C -0.0671337  0.0489567 -0.3463079    0.00000       Uiso       1.00
        H2          H  0.1538348  0.0097423 -0.4023491    0.00000       Uiso       1.00
        H3          H  0.2433117 -0.0409169 -0.3232814    0.00000       Uiso       1.00
        H4          H  0.0911954 -0.0805434 -0.3735331    0.00000       Uiso       1.00
        H5          H -0.1036484 -0.0570851 -0.3194252    0.00000       Uiso       1.00
        H6          H -0.2493504  0.0427545 -0.3230704    0.00000       Uiso       1.00
        H7          H -0.0982892  0.0824325 -0.3733992    0.00000       Uiso       1.00
        H8          H  0.0976358  0.0589636 -0.3194542    0.00000       Uiso       1.00
