data_ICOF-2
_audit_creation_date              0000-00-00
_audit_creation_method            'LanYouShi'
_symmetry_space_group_name_H-M    'P1'
_cell_length_a                    25.0000000
_cell_length_b                    25.0000000
_cell_length_c                    5.0000000
_cell_angle_alpha                 90.0000000
_cell_angle_beta                  90.0000000
_cell_angle_gamma                 90.0000000
loop_
_atom_site_label
_atom_site_type_symbol
_atom_site_fract_x
_atom_site_fract_y
_atom_site_fract_z
_atom_site_U_iso_or_equiv
_atom_site_adp_type
_atom_site_occupancy
        C1          C  0.3624886  0.7808369  0.5000000    0.00000       Uiso       1.00
        C2          C  0.6375114  0.2191631  0.5000000    0.00000       Uiso       1.00
        C3          C  0.2191631  0.3624886  0.5000000    0.00000       Uiso       1.00
        C4          C  0.7808369  0.6375114  0.5000000    0.00000       Uiso       1.00
        C5          C  0.6375114  0.7808369  0.5000000    0.00000       Uiso       1.00
        C6          C  0.3624886  0.2191631  0.5000000    0.00000       Uiso       1.00
        C7          C  0.7808369  0.3624886  0.5000000    0.00000       Uiso       1.00
        C8          C  0.2191631  0.6375114  0.5000000    0.00000       Uiso       1.00
        C9          C  0.3800553  0.7269524  0.5000000    0.00000       Uiso       1.00
       C10          C  0.6199446  0.2730475  0.5000000    0.00000       Uiso       1.00
       C11          C  0.2730475  0.3800553  0.5000000    0.00000       Uiso       1.00
       C12          C  0.7269524  0.6199446  0.5000000    0.00000       Uiso       1.00
       C13          C  0.6199446  0.7269524  0.5000000    0.00000       Uiso       1.00
       C14          C  0.3800553  0.2730475  0.5000000    0.00000       Uiso       1.00
       C15          C  0.7269524  0.3800553  0.5000000    0.00000       Uiso       1.00
       C16          C  0.2730475  0.6199446  0.5000000    0.00000       Uiso       1.00
       C17          C  0.4353147  0.7147586  0.5000000    0.00000       Uiso       1.00
       C18          C  0.5646852  0.2852414  0.5000000    0.00000       Uiso       1.00
       C19          C  0.2852414  0.4353147  0.5000000    0.00000       Uiso       1.00
       C20          C  0.7147586  0.5646852  0.5000000    0.00000       Uiso       1.00
       C21          C  0.5646852  0.7147586  0.5000000    0.00000       Uiso       1.00
       C22          C  0.4353147  0.2852414  0.5000000    0.00000       Uiso       1.00
       C23          C  0.7147586  0.4353147  0.5000000    0.00000       Uiso       1.00
       C24          C  0.2852414  0.5646852  0.5000000    0.00000       Uiso       1.00
       C25          C  0.4721553  0.7573041  0.5000000    0.00000       Uiso       1.00
       C26          C  0.5278447  0.2426959  0.5000000    0.00000       Uiso       1.00
       C27          C  0.2426959  0.4721553  0.5000000    0.00000       Uiso       1.00
       C28          C  0.7573041  0.5278447  0.5000000    0.00000       Uiso       1.00
       C29          C  0.5278447  0.7573041  0.5000000    0.00000       Uiso       1.00
       C30          C  0.4721553  0.2426959  0.5000000    0.00000       Uiso       1.00
       C31          C  0.7573041  0.4721553  0.5000000    0.00000       Uiso       1.00
       C32          C  0.2426959  0.5278447  0.5000000    0.00000       Uiso       1.00
       C33          C  0.4547291  0.8105014  0.5000000    0.00000       Uiso       1.00
       C34          C  0.5452710  0.1894986  0.5000000    0.00000       Uiso       1.00
       C35          C  0.1894986  0.4547291  0.5000000    0.00000       Uiso       1.00
       C36          C  0.8105014  0.5452710  0.5000000    0.00000       Uiso       1.00
       C37          C  0.5452710  0.8105014  0.5000000    0.00000       Uiso       1.00
       C38          C  0.4547291  0.1894986  0.5000000    0.00000       Uiso       1.00
       C39          C  0.8105014  0.4547291  0.5000000    0.00000       Uiso       1.00
       C40          C  0.1894986  0.5452710  0.5000000    0.00000       Uiso       1.00
       C41          C  0.3999241  0.8229201  0.5000000    0.00000       Uiso       1.00
       C42          C  0.6000759  0.1770799  0.5000000    0.00000       Uiso       1.00
       C43          C  0.1770799  0.3999241  0.5000000    0.00000       Uiso       1.00
       C44          C  0.8229201  0.6000759  0.5000000    0.00000       Uiso       1.00
       C45          C  0.6000759  0.8229201  0.5000000    0.00000       Uiso       1.00
       C46          C  0.3999241  0.1770799  0.5000000    0.00000       Uiso       1.00
       C47          C  0.8229201  0.3999241  0.5000000    0.00000       Uiso       1.00
       C48          C  0.1770799  0.6000759  0.5000000    0.00000       Uiso       1.00
       C49          C  0.3448098  0.6889254  0.5000000    0.00000       Uiso       1.00
       C50          C  0.6551903  0.3110746  0.5000000    0.00000       Uiso       1.00
       C51          C  0.3110746  0.3448098  0.5000000    0.00000       Uiso       1.00
       C52          C  0.6889254  0.6551903  0.5000000    0.00000       Uiso       1.00
       C53          C  0.6551903  0.6889254  0.5000000    0.00000       Uiso       1.00
       C54          C  0.3448098  0.3110746  0.5000000    0.00000       Uiso       1.00
       C55          C  0.6889254  0.3448098  0.5000000    0.00000       Uiso       1.00
       C56          C  0.3110746  0.6551903  0.5000000    0.00000       Uiso       1.00
        H1          H  0.3178287  0.7900490  0.5000000    0.00000       Uiso       1.00
        H2          H  0.6821712  0.2099510  0.5000000    0.00000       Uiso       1.00
        H3          H  0.2099510  0.3178287  0.5000000    0.00000       Uiso       1.00
        H4          H  0.7900490  0.6821712  0.5000000    0.00000       Uiso       1.00
        H5          H  0.6821712  0.7900490  0.5000000    0.00000       Uiso       1.00
        H6          H  0.3178287  0.2099510  0.5000000    0.00000       Uiso       1.00
        H7          H  0.7900490  0.3178287  0.5000000    0.00000       Uiso       1.00
        H8          H  0.2099510  0.6821712  0.5000000    0.00000       Uiso       1.00
        H9          H  0.4490696  0.6712826  0.5000000    0.00000       Uiso       1.00
       H10          H  0.5509304  0.3287174  0.5000000    0.00000       Uiso       1.00
       H11          H  0.3287174  0.4490696  0.5000000    0.00000       Uiso       1.00
       H12          H  0.6712826  0.5509304  0.5000000    0.00000       Uiso       1.00
       H13          H  0.5509304  0.6712826  0.5000000    0.00000       Uiso       1.00
       H14          H  0.4490696  0.3287174  0.5000000    0.00000       Uiso       1.00
       H15          H  0.6712826  0.4490696  0.5000000    0.00000       Uiso       1.00
       H16          H  0.3287174  0.5509304  0.5000000    0.00000       Uiso       1.00
       H17          H  0.3863473  0.8627527  0.4984204    0.00000       Uiso       1.00
       H18          H  0.6136527  0.1372473  0.4984204    0.00000       Uiso       1.00
       H19          H  0.1372473  0.3863473  0.4984204    0.00000       Uiso       1.00
       H20          H  0.8627527  0.6136527  0.4984204    0.00000       Uiso       1.00
       H21          H  0.6136527  0.8627527  0.5015796    0.00000       Uiso       1.00
       H22          H  0.3863473  0.1372473  0.5015796    0.00000       Uiso       1.00
       H23          H  0.8627527  0.3863473  0.5015796    0.00000       Uiso       1.00
       H24          H  0.1372473  0.6136527  0.5015796    0.00000       Uiso       1.00
       C57          C  0.8514538  0.5000000  0.5000000    0.00000       Uiso       1.00
       C58          C  0.1485462  0.5000000  0.5000000    0.00000       Uiso       1.00
       C59          C  0.5000000  0.8514538  0.5000000    0.00000       Uiso       1.00
       C60          C  0.5000000  0.1485462  0.5000000    0.00000       Uiso       1.00
       C61          C  0.0994398  0.4872984  0.7063673    0.00000       Uiso       1.00
       C62          C  0.9005602  0.5127016  0.7063673    0.00000       Uiso       1.00
       C63          C  0.5127016  0.0994398  0.7063673    0.00000       Uiso       1.00
       C64          C  0.4872984  0.9005602  0.7063673    0.00000       Uiso       1.00
       C65          C  0.9005602  0.4872984  0.2936327    0.00000       Uiso       1.00
       C66          C  0.0994398  0.5127016  0.2936327    0.00000       Uiso       1.00
       C67          C  0.4872984  0.0994398  0.2936327    0.00000       Uiso       1.00
       C68          C  0.5127016  0.9005602  0.2936327    0.00000       Uiso       1.00
        O1          O  0.0439876  0.4709648  0.6564156    0.00000       Uiso       1.00
        O2          O  0.9560124  0.5290352  0.6564156    0.00000       Uiso       1.00
        O3          O  0.5290352  0.0439876  0.6564156    0.00000       Uiso       1.00
        O4          O  0.4709648  0.9560124  0.6564156    0.00000       Uiso       1.00
        O5          O  0.9560124  0.4709648  0.3435844    0.00000       Uiso       1.00
        O6          O  0.0439876  0.5290352  0.3435844    0.00000       Uiso       1.00
        O7          O  0.4709648  0.0439876  0.3435844    0.00000       Uiso       1.00
        O8          O  0.5290352  0.9560124  0.3435844    0.00000       Uiso       1.00
        B1          B  0.0000000  0.5000000  0.5000000    0.00000       Uiso       1.00
        B2          B  0.5000000  0.0000000  0.5000000    0.00000       Uiso       1.00
       H25          H  0.1155992  0.4570582  0.8372409    0.00000       Uiso       1.00
       H26          H  0.8844008  0.5429418  0.8372409    0.00000       Uiso       1.00
       H27          H  0.5429418  0.1155992  0.8372409    0.00000       Uiso       1.00
       H28          H  0.4570582  0.8844008  0.8372409    0.00000       Uiso       1.00
       H29          H  0.8844008  0.4570582  0.1627591    0.00000       Uiso       1.00
       H30          H  0.1155992  0.5429418  0.1627591    0.00000       Uiso       1.00
       H31          H  0.4570582  0.1155992  0.1627591    0.00000       Uiso       1.00
       H32          H  0.5429418  0.8844008  0.1627591    0.00000       Uiso       1.00
       H33          H  0.0927697  0.5260202  0.7937607    0.00000       Uiso       1.00
       H34          H  0.9072302  0.4739798  0.7937607    0.00000       Uiso       1.00
       H35          H  0.4739798  0.0927697  0.7937607    0.00000       Uiso       1.00
       H36          H  0.5260202  0.9072302  0.7937607    0.00000       Uiso       1.00
       H37          H  0.9072302  0.5260202  0.2062394    0.00000       Uiso       1.00
       H38          H  0.0927697  0.4739798  0.2062394    0.00000       Uiso       1.00
       H39          H  0.5260202  0.0927697  0.2062394    0.00000       Uiso       1.00
       H40          H  0.4739798  0.9072302  0.2062394    0.00000       Uiso       1.00
       Li1         Li  0.4000000  0.0000000  0.5000000    0.00000       Uiso       1.00
       Li2         Li  0.0000000  0.4000000  0.5000000    0.00000       Uiso       1.00
