data_crystal

_cell_length_a    46.83000
_cell_length_b    46.83000
_cell_length_c    6.82000
_cell_angle_alpha 90.00000
_cell_angle_beta  90.00000
_cell_angle_gamma 120.00000

_space_group_name_Hall 'P 1'
_space_group_name_H-M_alt  'P 1'

loop_
_symmetry_equiv_pos_as_xyz
'x,y,z' 

loop_
_atom_site_label
_atom_site_type_symbol
_atom_site_fract_x
_atom_site_fract_y
_atom_site_fract_z
C          C       0.01883   0.50941   0.25000 
C          C       0.08947   0.54474   0.25000 
B          B       0.12845   0.56422   0.25000 
C          C       0.49059   0.50941   0.25000 
C          C       0.45526   0.54474   0.25000 
B          B       0.43578   0.56422   0.25000 
C          C       0.49059   0.98117   0.25000 
C          C       0.45526   0.91053   0.25000 
B          B       0.43578   0.87155   0.25000 
C          C       0.98117   0.49059   0.25000 
C          C       0.91053   0.45526   0.25000 
B          B       0.87155   0.43578   0.25000 
C          C       0.50941   0.49059   0.25000 
C          C       0.54474   0.45526   0.25000 
B          B       0.56422   0.43578   0.25000 
C          C       0.50941   0.01883   0.25000 
C          C       0.54474   0.08947   0.25000 
B          B       0.56422   0.12845   0.25000 
C          C       0.03727   0.54438   0.25000 
C          C       0.07186   0.56161   0.25000 
C          C       0.18004   0.60475   0.25000 
C          C       0.20953   0.63520   0.25000 
C          C       0.20944   0.66515   0.25000 
C          C       0.23905   0.69553   0.25000 
C          C       0.26998   0.69715   0.25000 
C          C       0.26921   0.66650   0.25000 
C          C       0.23988   0.63540   0.25000 
O          O       0.14836   0.60032   0.25000 
H          H       0.02570   0.55927   0.25000 
H          H       0.08482   0.58832   0.25000 
H          H       0.18631   0.66516   0.25000 
H          H       0.23704   0.71747   0.25000 
H          H       0.29165   0.66674   0.25000 
C          C       0.45562   0.49289   0.25000 
C          C       0.43839   0.51025   0.25000 
C          C       0.39525   0.57529   0.25000 
C          C       0.36480   0.57433   0.25000 
C          C       0.33485   0.54429   0.25000 
C          C       0.30447   0.54352   0.25000 
C          C       0.30285   0.57283   0.25000 
C          C       0.33350   0.60271   0.25000 
C          C       0.36460   0.60448   0.25000 
O          O       0.39968   0.54804   0.25000 
H          H       0.44073   0.46643   0.25000 
H          H       0.41168   0.49650   0.25000 
H          H       0.33484   0.52115   0.25000 
H          H       0.28253   0.51957   0.25000 
H          H       0.33326   0.62491   0.25000 
C          C       0.50711   0.96273   0.25000 
C          C       0.48975   0.92814   0.25000 
C          C       0.42471   0.81996   0.25000 
C          C       0.42567   0.79047   0.25000 
C          C       0.45571   0.79056   0.25000 
C          C       0.45648   0.76095   0.25000 
C          C       0.42717   0.73002   0.25000 
C          C       0.39729   0.73079   0.25000 
C          C       0.39552   0.76012   0.25000 
O          O       0.45196   0.85164   0.25000 
H          H       0.53357   0.97430   0.25000 
H          H       0.50350   0.91518   0.25000 
H          H       0.47885   0.81369   0.25000 
H          H       0.48043   0.76296   0.25000 
H          H       0.37510   0.70835   0.25000 
C          C       0.96273   0.45562   0.25000 
C          C       0.92814   0.43839   0.25000 
C          C       0.81996   0.39525   0.25000 
C          C       0.79047   0.36480   0.25000 
C          C       0.79056   0.33485   0.25000 
C          C       0.76095   0.30447   0.25000 
C          C       0.73002   0.30285   0.25000 
C          C       0.73079   0.33350   0.25000 
C          C       0.76012   0.36460   0.25000 
O          O       0.85164   0.39968   0.25000 
H          H       0.97430   0.44073   0.25000 
H          H       0.91518   0.41168   0.25000 
H          H       0.81369   0.33484   0.25000 
H          H       0.76296   0.28253   0.25000 
H          H       0.70835   0.33326   0.25000 
C          C       0.54438   0.50711   0.25000 
C          C       0.56161   0.48975   0.25000 
C          C       0.60475   0.42471   0.25000 
C          C       0.63520   0.42567   0.25000 
C          C       0.66515   0.45571   0.25000 
C          C       0.69553   0.45648   0.25000 
C          C       0.69715   0.42717   0.25000 
C          C       0.66650   0.39729   0.25000 
C          C       0.63540   0.39552   0.25000 
O          O       0.60032   0.45196   0.25000 
H          H       0.55927   0.53357   0.25000 
H          H       0.58832   0.50350   0.25000 
H          H       0.66516   0.47885   0.25000 
H          H       0.71747   0.48043   0.25000 
H          H       0.66674   0.37510   0.25000 
C          C       0.49289   0.03727   0.25000 
C          C       0.51025   0.07186   0.25000 
C          C       0.57529   0.18004   0.25000 
C          C       0.57433   0.20953   0.25000 
C          C       0.54429   0.20944   0.25000 
C          C       0.54352   0.23905   0.25000 
C          C       0.57283   0.26998   0.25000 
C          C       0.60271   0.26921   0.25000 
C          C       0.60448   0.23988   0.25000 
O          O       0.54804   0.14836   0.25000 
H          H       0.46643   0.02570   0.25000 
H          H       0.49650   0.08482   0.25000 
H          H       0.52115   0.18631   0.25000 
H          H       0.51957   0.23704   0.25000 
H          H       0.62491   0.29165   0.25000 
C          C       0.54438   0.03727   0.25000 
C          C       0.56161   0.07186   0.25000 
C          C       0.60475   0.18004   0.25000 
C          C       0.63520   0.20953   0.25000 
C          C       0.66515   0.20944   0.25000 
C          C       0.69553   0.23905   0.25000 
C          C       0.69715   0.26998   0.25000 
C          C       0.66650   0.26921   0.25000 
C          C       0.63540   0.23988   0.25000 
O          O       0.60032   0.14836   0.25000 
H          H       0.55927   0.02570   0.25000 
H          H       0.58832   0.08482   0.25000 
H          H       0.66516   0.18631   0.25000 
H          H       0.71747   0.23704   0.25000 
H          H       0.66674   0.29165   0.25000 
C          C       0.49289   0.45562   0.25000 
C          C       0.51025   0.43839   0.25000 
C          C       0.57529   0.39525   0.25000 
C          C       0.57433   0.36480   0.25000 
C          C       0.54429   0.33485   0.25000 
C          C       0.54352   0.30447   0.25000 
C          C       0.57283   0.30285   0.25000 
C          C       0.60271   0.33350   0.25000 
C          C       0.60448   0.36460   0.25000 
O          O       0.54804   0.39968   0.25000 
H          H       0.46643   0.44073   0.25000 
H          H       0.49650   0.41168   0.25000 
H          H       0.52115   0.33484   0.25000 
H          H       0.51957   0.28253   0.25000 
H          H       0.62491   0.33326   0.25000 
C          C       0.96273   0.50711   0.25000 
C          C       0.92814   0.48975   0.25000 
C          C       0.81996   0.42471   0.25000 
C          C       0.79047   0.42567   0.25000 
C          C       0.79056   0.45571   0.25000 
C          C       0.76095   0.45648   0.25000 
C          C       0.73002   0.42717   0.25000 
C          C       0.73079   0.39729   0.25000 
C          C       0.76012   0.39552   0.25000 
O          O       0.85164   0.45196   0.25000 
H          H       0.97430   0.53357   0.25000 
H          H       0.91518   0.50350   0.25000 
H          H       0.81369   0.47885   0.25000 
H          H       0.76296   0.48043   0.25000 
H          H       0.70835   0.37510   0.25000 
C          C       0.45562   0.96273   0.25000 
C          C       0.43839   0.92814   0.25000 
C          C       0.39525   0.81996   0.25000 
C          C       0.36480   0.79047   0.25000 
C          C       0.33485   0.79056   0.25000 
C          C       0.30447   0.76095   0.25000 
C          C       0.30285   0.73002   0.25000 
C          C       0.33350   0.73079   0.25000 
C          C       0.36460   0.76012   0.25000 
O          O       0.39968   0.85164   0.25000 
H          H       0.44073   0.97430   0.25000 
H          H       0.41168   0.91518   0.25000 
H          H       0.33484   0.81369   0.25000 
H          H       0.28253   0.76296   0.25000 
H          H       0.33326   0.70835   0.25000 
C          C       0.50711   0.54438   0.25000 
C          C       0.48975   0.56161   0.25000 
C          C       0.42471   0.60475   0.25000 
C          C       0.42567   0.63520   0.25000 
C          C       0.45571   0.66515   0.25000 
C          C       0.45648   0.69553   0.25000 
C          C       0.42717   0.69715   0.25000 
C          C       0.39729   0.66650   0.25000 
C          C       0.39552   0.63540   0.25000 
O          O       0.45196   0.60032   0.25000 
H          H       0.53357   0.55927   0.25000 
H          H       0.50350   0.58832   0.25000 
H          H       0.47885   0.66516   0.25000 
H          H       0.48043   0.71747   0.25000 
H          H       0.37510   0.66674   0.25000 
C          C       0.03727   0.49289   0.25000 
C          C       0.07186   0.51025   0.25000 
C          C       0.18004   0.57529   0.25000 
C          C       0.20953   0.57433   0.25000 
C          C       0.20944   0.54429   0.25000 
C          C       0.23905   0.54352   0.25000 
C          C       0.26998   0.57283   0.25000 
C          C       0.26921   0.60271   0.25000 
C          C       0.23988   0.60448   0.25000 
O          O       0.14836   0.54804   0.25000 
H          H       0.02570   0.46643   0.25000 
H          H       0.08482   0.49650   0.25000 
H          H       0.18631   0.52115   0.25000 
H          H       0.23704   0.51957   0.25000 
H          H       0.29165   0.62491   0.25000 
C          C       0.01883   0.50941   0.75000 
C          C       0.08947   0.54474   0.75000 
B          B       0.12845   0.56422   0.75000 
C          C       0.49059   0.50941   0.75000 
C          C       0.45526   0.54474   0.75000 
B          B       0.43578   0.56422   0.75000 
C          C       0.49059   0.98117   0.75000 
C          C       0.45526   0.91053   0.75000 
B          B       0.43578   0.87155   0.75000 
C          C       0.98117   0.49059   0.75000 
C          C       0.91053   0.45526   0.75000 
B          B       0.87155   0.43578   0.75000 
C          C       0.50941   0.49059   0.75000 
C          C       0.54474   0.45526   0.75000 
B          B       0.56422   0.43578   0.75000 
C          C       0.50941   0.01883   0.75000 
C          C       0.54474   0.08947   0.75000 
B          B       0.56422   0.12845   0.75000 
C          C       0.03727   0.54438   0.75000 
C          C       0.07186   0.56161   0.75000 
C          C       0.18004   0.60475   0.75000 
C          C       0.20953   0.63520   0.75000 
C          C       0.20944   0.66515   0.75000 
C          C       0.23905   0.69553   0.75000 
C          C       0.26998   0.69715   0.75000 
C          C       0.26921   0.66650   0.75000 
C          C       0.23988   0.63540   0.75000 
O          O       0.14836   0.60032   0.75000 
H          H       0.02570   0.55927   0.75000 
H          H       0.08482   0.58832   0.75000 
H          H       0.18631   0.66516   0.75000 
H          H       0.23704   0.71747   0.75000 
H          H       0.29165   0.66674   0.75000 
C          C       0.45562   0.49289   0.75000 
C          C       0.43839   0.51025   0.75000 
C          C       0.39525   0.57529   0.75000 
C          C       0.36480   0.57433   0.75000 
C          C       0.33485   0.54429   0.75000 
C          C       0.30447   0.54352   0.75000 
C          C       0.30285   0.57283   0.75000 
C          C       0.33350   0.60271   0.75000 
C          C       0.36460   0.60448   0.75000 
O          O       0.39968   0.54804   0.75000 
H          H       0.44073   0.46643   0.75000 
H          H       0.41168   0.49650   0.75000 
H          H       0.33484   0.52115   0.75000 
H          H       0.28253   0.51957   0.75000 
H          H       0.33326   0.62491   0.75000 
C          C       0.50711   0.96273   0.75000 
C          C       0.48975   0.92814   0.75000 
C          C       0.42471   0.81996   0.75000 
C          C       0.42567   0.79047   0.75000 
C          C       0.45571   0.79056   0.75000 
C          C       0.45648   0.76095   0.75000 
C          C       0.42717   0.73002   0.75000 
C          C       0.39729   0.73079   0.75000 
C          C       0.39552   0.76012   0.75000 
O          O       0.45196   0.85164   0.75000 
H          H       0.53357   0.97430   0.75000 
H          H       0.50350   0.91518   0.75000 
H          H       0.47885   0.81369   0.75000 
H          H       0.48043   0.76296   0.75000 
H          H       0.37510   0.70835   0.75000 
C          C       0.96273   0.45562   0.75000 
C          C       0.92814   0.43839   0.75000 
C          C       0.81996   0.39525   0.75000 
C          C       0.79047   0.36480   0.75000 
C          C       0.79056   0.33485   0.75000 
C          C       0.76095   0.30447   0.75000 
C          C       0.73002   0.30285   0.75000 
C          C       0.73079   0.33350   0.75000 
C          C       0.76012   0.36460   0.75000 
O          O       0.85164   0.39968   0.75000 
H          H       0.97430   0.44073   0.75000 
H          H       0.91518   0.41168   0.75000 
H          H       0.81369   0.33484   0.75000 
H          H       0.76296   0.28253   0.75000 
H          H       0.70835   0.33326   0.75000 
C          C       0.54438   0.50711   0.75000 
C          C       0.56161   0.48975   0.75000 
C          C       0.60475   0.42471   0.75000 
C          C       0.63520   0.42567   0.75000 
C          C       0.66515   0.45571   0.75000 
C          C       0.69553   0.45648   0.75000 
C          C       0.69715   0.42717   0.75000 
C          C       0.66650   0.39729   0.75000 
C          C       0.63540   0.39552   0.75000 
O          O       0.60032   0.45196   0.75000 
H          H       0.55927   0.53357   0.75000 
H          H       0.58832   0.50350   0.75000 
H          H       0.66516   0.47885   0.75000 
H          H       0.71747   0.48043   0.75000 
H          H       0.66674   0.37510   0.75000 
C          C       0.49289   0.03727   0.75000 
C          C       0.51025   0.07186   0.75000 
C          C       0.57529   0.18004   0.75000 
C          C       0.57433   0.20953   0.75000 
C          C       0.54429   0.20944   0.75000 
C          C       0.54352   0.23905   0.75000 
C          C       0.57283   0.26998   0.75000 
C          C       0.60271   0.26921   0.75000 
C          C       0.60448   0.23988   0.75000 
O          O       0.54804   0.14836   0.75000 
H          H       0.46643   0.02570   0.75000 
H          H       0.49650   0.08482   0.75000 
H          H       0.52115   0.18631   0.75000 
H          H       0.51957   0.23704   0.75000 
H          H       0.62491   0.29165   0.75000 
C          C       0.54438   0.03727   0.75000 
C          C       0.56161   0.07186   0.75000 
C          C       0.60475   0.18004   0.75000 
C          C       0.63520   0.20953   0.75000 
C          C       0.66515   0.20944   0.75000 
C          C       0.69553   0.23905   0.75000 
C          C       0.69715   0.26998   0.75000 
C          C       0.66650   0.26921   0.75000 
C          C       0.63540   0.23988   0.75000 
O          O       0.60032   0.14836   0.75000 
H          H       0.55927   0.02570   0.75000 
H          H       0.58832   0.08482   0.75000 
H          H       0.66516   0.18631   0.75000 
H          H       0.71747   0.23704   0.75000 
H          H       0.66674   0.29165   0.75000 
C          C       0.49289   0.45562   0.75000 
C          C       0.51025   0.43839   0.75000 
C          C       0.57529   0.39525   0.75000 
C          C       0.57433   0.36480   0.75000 
C          C       0.54429   0.33485   0.75000 
C          C       0.54352   0.30447   0.75000 
C          C       0.57283   0.30285   0.75000 
C          C       0.60271   0.33350   0.75000 
C          C       0.60448   0.36460   0.75000 
O          O       0.54804   0.39968   0.75000 
H          H       0.46643   0.44073   0.75000 
H          H       0.49650   0.41168   0.75000 
H          H       0.52115   0.33484   0.75000 
H          H       0.51957   0.28253   0.75000 
H          H       0.62491   0.33326   0.75000 
C          C       0.96273   0.50711   0.75000 
C          C       0.92814   0.48975   0.75000 
C          C       0.81996   0.42471   0.75000 
C          C       0.79047   0.42567   0.75000 
C          C       0.79056   0.45571   0.75000 
C          C       0.76095   0.45648   0.75000 
C          C       0.73002   0.42717   0.75000 
C          C       0.73079   0.39729   0.75000 
C          C       0.76012   0.39552   0.75000 
O          O       0.85164   0.45196   0.75000 
H          H       0.97430   0.53357   0.75000 
H          H       0.91518   0.50350   0.75000 
H          H       0.81369   0.47885   0.75000 
H          H       0.76296   0.48043   0.75000 
H          H       0.70835   0.37510   0.75000 
C          C       0.45562   0.96273   0.75000 
C          C       0.43839   0.92814   0.75000 
C          C       0.39525   0.81996   0.75000 
C          C       0.36480   0.79047   0.75000 
C          C       0.33485   0.79056   0.75000 
C          C       0.30447   0.76095   0.75000 
C          C       0.30285   0.73002   0.75000 
C          C       0.33350   0.73079   0.75000 
C          C       0.36460   0.76012   0.75000 
O          O       0.39968   0.85164   0.75000 
H          H       0.44073   0.97430   0.75000 
H          H       0.41168   0.91518   0.75000 
H          H       0.33484   0.81369   0.75000 
H          H       0.28253   0.76296   0.75000 
H          H       0.33326   0.70835   0.75000 
C          C       0.50711   0.54438   0.75000 
C          C       0.48975   0.56161   0.75000 
C          C       0.42471   0.60475   0.75000 
C          C       0.42567   0.63520   0.75000 
C          C       0.45571   0.66515   0.75000 
C          C       0.45648   0.69553   0.75000 
C          C       0.42717   0.69715   0.75000 
C          C       0.39729   0.66650   0.75000 
C          C       0.39552   0.63540   0.75000 
O          O       0.45196   0.60032   0.75000 
H          H       0.53357   0.55927   0.75000 
H          H       0.50350   0.58832   0.75000 
H          H       0.47885   0.66516   0.75000 
H          H       0.48043   0.71747   0.75000 
H          H       0.37510   0.66674   0.75000 
C          C       0.03727   0.49289   0.75000 
C          C       0.07186   0.51025   0.75000 
C          C       0.18004   0.57529   0.75000 
C          C       0.20953   0.57433   0.75000 
C          C       0.20944   0.54429   0.75000 
C          C       0.23905   0.54352   0.75000 
C          C       0.26998   0.57283   0.75000 
C          C       0.26921   0.60271   0.75000 
C          C       0.23988   0.60448   0.75000 
O          O       0.14836   0.54804   0.75000 
H          H       0.02570   0.46643   0.75000 
H          H       0.08482   0.49650   0.75000 
H          H       0.18631   0.52115   0.75000 
H          H       0.23704   0.51957   0.75000 
H          H       0.29165   0.62491   0.75000 
