data_crystal
 
_cell_length_a    38.52000
_cell_length_b    38.52000
_cell_length_c    3.38000
_cell_angle_alpha 90.00000
_cell_angle_beta  90.00000
_cell_angle_gamma 120.00000
 
_symmetry_space_group_name_Hall 'P 1'
_symmetry_space_group_name_H-M  'P 1'
 
loop_
_symmetry_equiv_pos_as_xyz
 'x,y,z' 
 
loop_
_atom_site_label
_atom_site_type_symbol
_atom_site_fract_x
_atom_site_fract_y
_atom_site_fract_z
_atom_site_charge
C          C       0.02079   0.54196   0.50000   0.0000000000
C          C       0.14867   0.59298   0.50000   0.0000000000
C          C       0.18398   0.62937   0.50000   0.0000000000
C          C       0.18350   0.66549   0.50000   0.0000000000
C          C       0.21925   0.70217   0.50000   0.0000000000
C          C       0.25663   0.70381   0.50000   0.0000000000
C          C       0.25592   0.66671   0.50000   0.0000000000
C          C       0.22052   0.62912   0.50000   0.0000000000
O          O       0.11050   0.58739   0.50000   0.0000000000
H          H       0.03656   0.57444   0.50000   0.0000000000
H          H       0.15535   0.66543   0.50000   0.0000000000
H          H       0.21666   0.72873   0.50000   0.0000000000
H          H       0.28302   0.66683   0.50000   0.0000000000
C          C       0.45804   0.47883   0.50000   0.0000000000
C          C       0.40702   0.55569   0.50000   0.0000000000
C          C       0.37063   0.55461   0.50000   0.0000000000
C          C       0.33451   0.51801   0.50000   0.0000000000
C          C       0.29783   0.51708   0.50000   0.0000000000
C          C       0.29618   0.55281   0.50000   0.0000000000
C          C       0.33329   0.58921   0.50000   0.0000000000
C          C       0.37088   0.59140   0.50000   0.0000000000
O          O       0.41261   0.52311   0.50000   0.0000000000
H          H       0.42556   0.46213   0.50000   0.0000000000
H          H       0.33457   0.48992   0.50000   0.0000000000
H          H       0.27127   0.48792   0.50000   0.0000000000
H          H       0.33317   0.61619   0.50000   0.0000000000
C          C       0.52117   0.97921   0.50000   0.0000000000
C          C       0.44431   0.85133   0.50000   0.0000000000
C          C       0.44539   0.81602   0.50000   0.0000000000
C          C       0.48199   0.81650   0.50000   0.0000000000
C          C       0.48292   0.78075   0.50000   0.0000000000
C          C       0.44719   0.74337   0.50000   0.0000000000
C          C       0.41079   0.74408   0.50000   0.0000000000
C          C       0.40860   0.77948   0.50000   0.0000000000
O          O       0.47689   0.88950   0.50000   0.0000000000
H          H       0.53787   0.96344   0.50000   0.0000000000
H          H       0.51008   0.84465   0.50000   0.0000000000
H          H       0.51208   0.78334   0.50000   0.0000000000
H          H       0.38381   0.71698   0.50000   0.0000000000
C          C       0.97921   0.45804   0.50000   0.0000000000
C          C       0.85133   0.40702   0.50000   0.0000000000
C          C       0.81602   0.37063   0.50000   0.0000000000
C          C       0.81650   0.33451   0.50000   0.0000000000
C          C       0.78075   0.29783   0.50000   0.0000000000
C          C       0.74337   0.29618   0.50000   0.0000000000
C          C       0.74408   0.33329   0.50000   0.0000000000
C          C       0.77948   0.37088   0.50000   0.0000000000
O          O       0.88950   0.41261   0.50000   0.0000000000
H          H       0.96344   0.42556   0.50000   0.0000000000
H          H       0.84465   0.33457   0.50000   0.0000000000
H          H       0.78334   0.27127   0.50000   0.0000000000
H          H       0.71698   0.33317   0.50000   0.0000000000
C          C       0.54196   0.52117   0.50000   0.0000000000
C          C       0.59298   0.44431   0.50000   0.0000000000
C          C       0.62937   0.44539   0.50000   0.0000000000
C          C       0.66549   0.48199   0.50000   0.0000000000
C          C       0.70217   0.48292   0.50000   0.0000000000
C          C       0.70381   0.44719   0.50000   0.0000000000
C          C       0.66671   0.41079   0.50000   0.0000000000
C          C       0.62912   0.40860   0.50000   0.0000000000
O          O       0.58739   0.47689   0.50000   0.0000000000
H          H       0.57444   0.53787   0.50000   0.0000000000
H          H       0.66543   0.51008   0.50000   0.0000000000
H          H       0.72873   0.51208   0.50000   0.0000000000
H          H       0.66683   0.38381   0.50000   0.0000000000
C          C       0.47883   0.02079   0.50000   0.0000000000
C          C       0.55569   0.14867   0.50000   0.0000000000
C          C       0.55461   0.18398   0.50000   0.0000000000
C          C       0.51801   0.18350   0.50000   0.0000000000
C          C       0.51708   0.21925   0.50000   0.0000000000
C          C       0.55281   0.25663   0.50000   0.0000000000
C          C       0.58921   0.25592   0.50000   0.0000000000
C          C       0.59140   0.22052   0.50000   0.0000000000
O          O       0.52311   0.11050   0.50000   0.0000000000
H          H       0.46213   0.03656   0.50000   0.0000000000
H          H       0.48992   0.15535   0.50000   0.0000000000
H          H       0.48792   0.21666   0.50000   0.0000000000
H          H       0.61619   0.28302   0.50000   0.0000000000
C          C       0.54196   0.02079   0.50000   0.0000000000
C          C       0.59298   0.14867   0.50000   0.0000000000
C          C       0.62937   0.18398   0.50000   0.0000000000
C          C       0.66549   0.18350   0.50000   0.0000000000
C          C       0.70217   0.21925   0.50000   0.0000000000
C          C       0.70381   0.25663   0.50000   0.0000000000
C          C       0.66671   0.25592   0.50000   0.0000000000
C          C       0.62912   0.22052   0.50000   0.0000000000
O          O       0.58739   0.11050   0.50000   0.0000000000
H          H       0.57444   0.03656   0.50000   0.0000000000
H          H       0.66543   0.15535   0.50000   0.0000000000
H          H       0.72873   0.21666   0.50000   0.0000000000
H          H       0.66683   0.28302   0.50000   0.0000000000
C          C       0.47883   0.45804   0.50000   0.0000000000
C          C       0.55569   0.40702   0.50000   0.0000000000
C          C       0.55461   0.37063   0.50000   0.0000000000
C          C       0.51801   0.33451   0.50000   0.0000000000
C          C       0.51708   0.29783   0.50000   0.0000000000
C          C       0.55281   0.29618   0.50000   0.0000000000
C          C       0.58921   0.33329   0.50000   0.0000000000
C          C       0.59140   0.37088   0.50000   0.0000000000
O          O       0.52311   0.41261   0.50000   0.0000000000
H          H       0.46213   0.42556   0.50000   0.0000000000
H          H       0.48992   0.33457   0.50000   0.0000000000
H          H       0.48792   0.27127   0.50000   0.0000000000
H          H       0.61619   0.33317   0.50000   0.0000000000
C          C       0.97921   0.52117   0.50000   0.0000000000
C          C       0.85133   0.44431   0.50000   0.0000000000
C          C       0.81602   0.44539   0.50000   0.0000000000
C          C       0.81650   0.48199   0.50000   0.0000000000
C          C       0.78075   0.48292   0.50000   0.0000000000
C          C       0.74337   0.44719   0.50000   0.0000000000
C          C       0.74408   0.41079   0.50000   0.0000000000
C          C       0.77948   0.40860   0.50000   0.0000000000
O          O       0.88950   0.47689   0.50000   0.0000000000
H          H       0.96344   0.53787   0.50000   0.0000000000
H          H       0.84465   0.51008   0.50000   0.0000000000
H          H       0.78334   0.51208   0.50000   0.0000000000
H          H       0.71698   0.38381   0.50000   0.0000000000
C          C       0.45804   0.97921   0.50000   0.0000000000
C          C       0.40702   0.85133   0.50000   0.0000000000
C          C       0.37063   0.81602   0.50000   0.0000000000
C          C       0.33451   0.81650   0.50000   0.0000000000
C          C       0.29783   0.78075   0.50000   0.0000000000
C          C       0.29618   0.74337   0.50000   0.0000000000
C          C       0.33329   0.74408   0.50000   0.0000000000
C          C       0.37088   0.77948   0.50000   0.0000000000
O          O       0.41261   0.88950   0.50000   0.0000000000
H          H       0.42556   0.96344   0.50000   0.0000000000
H          H       0.33457   0.84465   0.50000   0.0000000000
H          H       0.27127   0.78334   0.50000   0.0000000000
H          H       0.33317   0.71698   0.50000   0.0000000000
C          C       0.52117   0.54196   0.50000   0.0000000000
C          C       0.44431   0.59298   0.50000   0.0000000000
C          C       0.44539   0.62937   0.50000   0.0000000000
C          C       0.48199   0.66549   0.50000   0.0000000000
C          C       0.48292   0.70217   0.50000   0.0000000000
C          C       0.44719   0.70381   0.50000   0.0000000000
C          C       0.41079   0.66671   0.50000   0.0000000000
C          C       0.40860   0.62912   0.50000   0.0000000000
O          O       0.47689   0.58739   0.50000   0.0000000000
H          H       0.53787   0.57444   0.50000   0.0000000000
H          H       0.51008   0.66543   0.50000   0.0000000000
H          H       0.51208   0.72873   0.50000   0.0000000000
H          H       0.38381   0.66683   0.50000   0.0000000000
C          C       0.02079   0.47883   0.50000   0.0000000000
C          C       0.14867   0.55569   0.50000   0.0000000000
C          C       0.18398   0.55461   0.50000   0.0000000000
C          C       0.18350   0.51801   0.50000   0.0000000000
C          C       0.21925   0.51708   0.50000   0.0000000000
C          C       0.25663   0.55281   0.50000   0.0000000000
C          C       0.25592   0.58921   0.50000   0.0000000000
C          C       0.22052   0.59140   0.50000   0.0000000000
O          O       0.11050   0.52311   0.50000   0.0000000000
H          H       0.03656   0.46213   0.50000   0.0000000000
H          H       0.15535   0.48992   0.50000   0.0000000000
H          H       0.21666   0.48792   0.50000   0.0000000000
H          H       0.28302   0.61619   0.50000   0.0000000000
C          C       0.04149   0.52075   0.50000   0.0000000000
B          B       0.08729   0.54364   0.50000   0.0000000000
C          C       0.47925   0.52075   0.50000   0.0000000000
B          B       0.45636   0.54364   0.50000   0.0000000000
C          C       0.47925   0.95851   0.50000   0.0000000000
B          B       0.45636   0.91271   0.50000   0.0000000000
C          C       0.95851   0.47925   0.50000   0.0000000000
B          B       0.91271   0.45636   0.50000   0.0000000000
C          C       0.52075   0.47925   0.50000   0.0000000000
B          B       0.54364   0.45636   0.50000   0.0000000000
C          C       0.52075   0.04149   0.50000   0.0000000000
B          B       0.54364   0.08729   0.50000   0.0000000000
