data_crystal
 
_cell_length_a    7.30000
_cell_length_b    7.30000
_cell_length_c    3.30000
_cell_angle_alpha 90.00000
_cell_angle_beta  90.00000
_cell_angle_gamma 120.00000
 
_symmetry_space_group_name_Hall 'P 1'
_symmetry_space_group_name_H-M  'P 1'
 
loop_
_symmetry_equiv_pos_as_xyz
 'x,y,z' 
 
loop_
_atom_site_label
_atom_site_type_symbol
_atom_site_fract_x
_atom_site_fract_y
_atom_site_fract_z
_atom_site_charge
C          C       0.11222   0.55611   0.50000   0.0000000000
C          C       0.22338   0.77663   0.50000   0.0000000000
C          C       0.55948   0.44051   0.50000   0.0000000000
N          N       0.45310   0.22655   0.50000   0.0000000000
C          C       0.44389   0.55611   0.50000   0.0000000000
C          C       0.22337   0.44675   0.50000   0.0000000000
C          C       0.55949   0.11897   0.50000   0.0000000000
N          N       0.77345   0.22654   0.50000   0.0000000000
C          C       0.44389   0.88778   0.50000   0.0000000000
C          C       0.55325   0.77662   0.50000   0.0000000000
C          C       0.88103   0.44052   0.50000   0.0000000000
N          N       0.77346   0.54690   0.50000   0.0000000000
H          H       0.13774   0.86227   0.50000   0.0000000000
H          H       0.72453   0.86226   0.50000   0.0000000000
H          H       0.13773   0.27547   0.50000   0.0000000000
