data_crystal

_cell_length_a    29.83300
_cell_length_b    29.83300
_cell_length_c    7.20000
_cell_angle_alpha 90.00000
_cell_angle_beta  90.00000
_cell_angle_gamma 60.00000

_space_group_name_Hall 'P 1'
_space_group_name_H-M_alt  'P 1'

loop_
_symmetry_equiv_pos_as_xyz
'x,y,z' 

loop_
_atom_site_label
_atom_site_type_symbol
_atom_site_fract_x
_atom_site_fract_y
_atom_site_fract_z
C          C       0.40691   0.36240   0.69444 
N          N       0.39996   0.41163   0.69444 
C          C       0.43921   0.42318   0.69444 
C          C       0.48947   0.38683   0.69444 
C          C       0.55006   0.46320   0.69444 
C          C       0.51330   0.44984   0.69444 
C          C       0.46305   0.48675   0.69444 
C          C       0.52591   0.40005   0.69444 
C          C       0.42668   0.47290   0.69444 
O          O       0.40658   0.56872   0.69444 
H          H       0.55564   0.66768   0.69444 
H          H       0.49823   0.65196   0.69444 
H          H       0.43561   0.62874   0.69444 
H          H       0.61190   0.49879   0.69444 
H          H       0.36482   0.44226   0.69444 
C          C       0.59309   0.63760   0.69444 
N          N       0.60004   0.58837   0.69444 
C          C       0.56079   0.57682   0.69444 
C          C       0.51053   0.61317   0.69444 
C          C       0.44994   0.53680   0.69444 
C          C       0.48670   0.55016   0.69444 
C          C       0.53695   0.51325   0.69444 
C          C       0.47409   0.59995   0.69444 
C          C       0.57332   0.52710   0.69444 
O          O       0.59342   0.43128   0.69444 
H          H       0.44436   0.33232   0.69444 
H          H       0.50177   0.34804   0.69444 
H          H       0.56439   0.37126   0.69444 
H          H       0.38810   0.50121   0.69444 
H          H       0.63518   0.55774   0.69444 
C          C       0.23069   0.40691   0.69444 
N          N       0.18841   0.39996   0.69444 
C          C       0.13761   0.43921   0.69444 
C          C       0.12370   0.48947   0.69444 
C          C       0.98674   0.55006   0.69444 
C          C       0.03686   0.51330   0.69444 
C          C       0.05020   0.46305   0.69444 
C          C       0.07404   0.52591   0.69444 
C          C       0.10042   0.42668   0.69444 
O          O       0.02470   0.40658   0.69444 
H          H       0.77668   0.55564   0.69444 
H          H       0.84981   0.49823   0.69444 
H          H       0.93565   0.43561   0.69444 
H          H       0.88931   0.61190   0.69444 
H          H       0.19292   0.36482   0.69444 
C          C       0.76931   0.59309   0.69444 
N          N       0.81159   0.60004   0.69444 
C          C       0.86239   0.56079   0.69444 
C          C       0.87630   0.51053   0.69444 
C          C       0.01326   0.44994   0.69444 
C          C       0.96314   0.48670   0.69444 
C          C       0.94980   0.53695   0.69444 
C          C       0.92596   0.47409   0.69444 
C          C       0.89958   0.57332   0.69444 
O          O       0.97530   0.59342   0.69444 
H          H       0.22332   0.44436   0.69444 
H          H       0.15019   0.50177   0.69444 
H          H       0.06435   0.56439   0.69444 
H          H       0.11069   0.38810   0.69444 
H          H       0.80708   0.63518   0.69444 
C          C       0.36240   0.23069   0.69444 
N          N       0.41163   0.18841   0.69444 
C          C       0.42318   0.13761   0.69444 
C          C       0.38683   0.12370   0.69444 
C          C       0.46320   0.98674   0.69444 
C          C       0.44984   0.03686   0.69444 
C          C       0.48675   0.05020   0.69444 
C          C       0.40005   0.07404   0.69444 
C          C       0.47290   0.10042   0.69444 
O          O       0.56872   0.02470   0.69444 
H          H       0.66768   0.77668   0.69444 
H          H       0.65196   0.84981   0.69444 
H          H       0.62874   0.93565   0.69444 
H          H       0.49879   0.88931   0.69444 
H          H       0.44226   0.19292   0.69444 
C          C       0.63760   0.76931   0.69444 
N          N       0.58837   0.81159   0.69444 
C          C       0.57682   0.86239   0.69444 
C          C       0.61317   0.87630   0.69444 
C          C       0.53680   0.01326   0.69444 
C          C       0.55016   0.96314   0.69444 
C          C       0.51325   0.94980   0.69444 
C          C       0.59995   0.92596   0.69444 
C          C       0.52710   0.89958   0.69444 
O          O       0.43128   0.97530   0.69444 
H          H       0.33232   0.22332   0.69444 
H          H       0.34804   0.15019   0.69444 
H          H       0.37126   0.06435   0.69444 
H          H       0.50121   0.11069   0.69444 
H          H       0.55774   0.80708   0.69444 
C          C       0.68317   0.61371   0.69444 
C          C       0.62934   0.64980   0.69444 
O          O       0.69760   0.56986   0.69444 
C          C       0.61371   0.70312   0.69444 
C          C       0.64980   0.72086   0.69444 
O          O       0.56986   0.73254   0.69444 
C          C       0.70312   0.68317   0.69444 
C          C       0.72086   0.62934   0.69444 
O          O       0.73254   0.69760   0.69444 
C          C       0.31683   0.38629   0.69444 
C          C       0.37066   0.35020   0.69444 
O          O       0.30240   0.43014   0.69444 
C          C       0.38629   0.29688   0.69444 
C          C       0.35020   0.27914   0.69444 
O          O       0.43014   0.26746   0.69444 
C          C       0.29688   0.31683   0.69444 
C          C       0.27914   0.37066   0.69444 
O          O       0.26746   0.30240   0.69444 
C          C       0.40691   0.36240   1.19444 
N          N       0.39996   0.41163   1.19444 
C          C       0.43921   0.42318   1.19444 
C          C       0.48947   0.38683   1.19444 
C          C       0.55006   0.46320   1.19444 
C          C       0.51330   0.44984   1.19444 
C          C       0.46305   0.48675   1.19444 
C          C       0.52591   0.40005   1.19444 
C          C       0.42668   0.47290   1.19444 
O          O       0.40658   0.56872   1.19444 
H          H       0.55564   0.66768   1.19444 
H          H       0.49823   0.65196   1.19444 
H          H       0.43561   0.62874   1.19444 
H          H       0.61190   0.49879   1.19444 
H          H       0.36482   0.44226   1.19444 
C          C       0.59309   0.63760   1.19444 
N          N       0.60004   0.58837   1.19444 
C          C       0.56079   0.57682   1.19444 
C          C       0.51053   0.61317   1.19444 
C          C       0.44994   0.53680   1.19444 
C          C       0.48670   0.55016   1.19444 
C          C       0.53695   0.51325   1.19444 
C          C       0.47409   0.59995   1.19444 
C          C       0.57332   0.52710   1.19444 
O          O       0.59342   0.43128   1.19444 
H          H       0.44436   0.33232   1.19444 
H          H       0.50177   0.34804   1.19444 
H          H       0.56439   0.37126   1.19444 
H          H       0.38810   0.50121   1.19444 
H          H       0.63518   0.55774   1.19444 
C          C       0.23069   0.40691   1.19444 
N          N       0.18841   0.39996   1.19444 
C          C       0.13761   0.43921   1.19444 
C          C       0.12370   0.48947   1.19444 
C          C       0.98674   0.55006   1.19444 
C          C       0.03686   0.51330   1.19444 
C          C       0.05020   0.46305   1.19444 
C          C       0.07404   0.52591   1.19444 
C          C       0.10042   0.42668   1.19444 
O          O       0.02470   0.40658   1.19444 
H          H       0.77668   0.55564   1.19444 
H          H       0.84981   0.49823   1.19444 
H          H       0.93565   0.43561   1.19444 
H          H       0.88931   0.61190   1.19444 
H          H       0.19292   0.36482   1.19444 
C          C       0.76931   0.59309   1.19444 
N          N       0.81159   0.60004   1.19444 
C          C       0.86239   0.56079   1.19444 
C          C       0.87630   0.51053   1.19444 
C          C       0.01326   0.44994   1.19444 
C          C       0.96314   0.48670   1.19444 
C          C       0.94980   0.53695   1.19444 
C          C       0.92596   0.47409   1.19444 
C          C       0.89958   0.57332   1.19444 
O          O       0.97530   0.59342   1.19444 
H          H       0.22332   0.44436   1.19444 
H          H       0.15019   0.50177   1.19444 
H          H       0.06435   0.56439   1.19444 
H          H       0.11069   0.38810   1.19444 
H          H       0.80708   0.63518   1.19444 
C          C       0.36240   0.23069   1.19444 
N          N       0.41163   0.18841   1.19444 
C          C       0.42318   0.13761   1.19444 
C          C       0.38683   0.12370   1.19444 
C          C       0.46320   0.98674   1.19444 
C          C       0.44984   0.03686   1.19444 
C          C       0.48675   0.05020   1.19444 
C          C       0.40005   0.07404   1.19444 
C          C       0.47290   0.10042   1.19444 
O          O       0.56872   0.02470   1.19444 
H          H       0.66768   0.77668   1.19444 
H          H       0.65196   0.84981   1.19444 
H          H       0.62874   0.93565   1.19444 
H          H       0.49879   0.88931   1.19444 
H          H       0.44226   0.19292   1.19444 
C          C       0.63760   0.76931   1.19444 
N          N       0.58837   0.81159   1.19444 
C          C       0.57682   0.86239   1.19444 
C          C       0.61317   0.87630   1.19444 
C          C       0.53680   0.01326   1.19444 
C          C       0.55016   0.96314   1.19444 
C          C       0.51325   0.94980   1.19444 
C          C       0.59995   0.92596   1.19444 
C          C       0.52710   0.89958   1.19444 
O          O       0.43128   0.97530   1.19444 
H          H       0.33232   0.22332   1.19444 
H          H       0.34804   0.15019   1.19444 
H          H       0.37126   0.06435   1.19444 
H          H       0.50121   0.11069   1.19444 
H          H       0.55774   0.80708   1.19444 
C          C       0.68317   0.61371   1.19444 
C          C       0.62934   0.64980   1.19444 
O          O       0.69760   0.56986   1.19444 
C          C       0.61371   0.70312   1.19444 
C          C       0.64980   0.72086   1.19444 
O          O       0.56986   0.73254   1.19444 
C          C       0.70312   0.68317   1.19444 
C          C       0.72086   0.62934   1.19444 
O          O       0.73254   0.69760   1.19444 
C          C       0.31683   0.38629   1.19444 
C          C       0.37066   0.35020   1.19444 
O          O       0.30240   0.43014   1.19444 
C          C       0.38629   0.29688   1.19444 
C          C       0.35020   0.27914   1.19444 
O          O       0.43014   0.26746   1.19444 
C          C       0.29688   0.31683   1.19444 
C          C       0.27914   0.37066   1.19444 
O          O       0.26746   0.30240   1.19444 
