data_crystal
 
_cell_length_a    23.28230
_cell_length_b    23.28230
_cell_length_c    3.30000
_cell_angle_alpha 90.00000
_cell_angle_beta  90.00000
_cell_angle_gamma 120.00000
 
_symmetry_space_group_name_Hall 'P 1'
_symmetry_space_group_name_H-M  'P 1'
 
loop_
_symmetry_equiv_pos_as_xyz
 'x,y,z' 
 
loop_
_atom_site_label
_atom_site_type_symbol
_atom_site_fract_x
_atom_site_fract_y
_atom_site_fract_z
_atom_site_charge
C          C       0.41525   0.61406   0.61238   0.0000000000
C          C       0.58475   0.38594   0.61238   0.0000000000
N          N       0.39490   0.54150   0.61238   0.0000000000
N          N       0.60509   0.45850   0.61238   0.0000000000
C          C       0.44705   0.52109   0.61238   0.0000000000
C          C       0.55295   0.47891   0.61238   0.0000000000
C          C       0.42586   0.44697   0.61238   0.0000000000
C          C       0.57414   0.55303   0.61238   0.0000000000
C          C       0.47886   0.42587   0.61238   0.0000000000
C          C       0.52114   0.57413   0.61238   0.0000000000
H          H       0.47005   0.65347   0.61238   0.0000000000
H          H       0.52995   0.34653   0.61238   0.0000000000
H          H       0.62885   0.59210   0.61238   0.0000000000
H          H       0.46322   0.37094   0.61238   0.0000000000
H          H       0.53678   0.62906   0.61238   0.0000000000
H          H       0.65843   0.49687   0.61238   0.0000000000
H          H       0.34157   0.50313   0.61238   0.0000000000
S          S       0.33871   0.38474   0.61238   0.0000000000
O          O       0.33177   0.32014   0.61238   0.0000000000
O          O       0.30777   0.39251   0.28809   0.0000000000
O          O       0.30538   0.39310   0.96159   0.0000000000
H          H       0.25915   0.36013   0.96172   0.0000000000
C          C       0.69559   0.40247   0.61238   0.0000000000
C          C       0.62548   0.36291   0.61238   0.0000000000
C          C       0.30441   0.59753   0.61238   0.0000000000
C          C       0.37452   0.63709   0.61238   0.0000000000
O          O       0.72044   0.45958   0.61238   0.0000000000
O          O       0.27956   0.54042   0.61238   0.0000000000
C          C       0.38594   0.80119   0.61238   0.0000000000
C          C       0.61406   1.19881   0.61238   0.0000000000
N          N       0.45850   0.85340   0.61238   0.0000000000
N          N       0.54150   1.14659   0.61238   0.0000000000
C          C       0.47891   0.92596   0.61238   0.0000000000
C          C       0.52109   1.07404   0.61238   0.0000000000
C          C       0.55303   0.97889   0.61238   0.0000000000
C          C       0.44697   1.02111   0.61238   0.0000000000
C          C       0.57413   1.05299   0.61238   0.0000000000
C          C       0.42587   0.94701   0.61238   0.0000000000
H          H       0.34653   0.81658   0.61238   0.0000000000
H          H       0.65347   1.18342   0.61238   0.0000000000
H          H       0.40790   1.03675   0.61238   0.0000000000
H          H       0.62906   1.09228   0.61238   0.0000000000
H          H       0.37094   0.90772   0.61238   0.0000000000
H          H       0.50313   1.16155   0.61238   0.0000000000
H          H       0.49687   0.83845   0.61238   0.0000000000
S          S       0.61526   0.95397   0.61238   0.0000000000
O          O       0.67986   1.01163   0.61238   0.0000000000
O          O       0.60749   0.91526   0.28809   0.0000000000
O          O       0.60690   0.91228   0.96159   0.0000000000
H          H       0.63987   0.89902   0.96172   0.0000000000
C          C       0.59753   1.29312   0.61238   0.0000000000
C          C       0.63709   1.26258   0.61238   0.0000000000
C          C       0.40247   0.70688   0.61238   0.0000000000
C          C       0.36291   0.73742   0.61238   0.0000000000
O          O       0.54042   1.26086   0.61238   0.0000000000
O          O       0.45958   0.73914   0.61238   0.0000000000
C          C       0.19881   0.58475   0.61238   0.0000000000
C          C      -0.19881   0.41525   0.61238   0.0000000000
N          N       0.14660   0.60510   0.61238   0.0000000000
N          N      -0.14659   0.39491   0.61238   0.0000000000
C          C       0.07404   0.55295   0.61238   0.0000000000
C          C      -0.07404   0.44705   0.61238   0.0000000000
C          C       0.02111   0.57414   0.61238   0.0000000000
C          C      -0.02111   0.42586   0.61238   0.0000000000
C          C      -0.05299   0.52114   0.61238   0.0000000000
C          C       0.05299   0.47886   0.61238   0.0000000000
H          H       0.18342   0.52995   0.61238   0.0000000000
H          H      -0.18342   0.47005   0.61238   0.0000000000
H          H      -0.03675   0.37115   0.61238   0.0000000000
H          H      -0.09228   0.53678   0.61238   0.0000000000
H          H       0.09228   0.46322   0.61238   0.0000000000
H          H      -0.16155   0.34157   0.61238   0.0000000000
H          H       0.16155   0.65843   0.61238   0.0000000000
S          S       0.04603   0.66129   0.61238   0.0000000000
O          O      -0.01163   0.66823   0.61238   0.0000000000
O          O       0.08474   0.69223   0.28809   0.0000000000
O          O       0.08772   0.69462   0.96159   0.0000000000
H          H       0.10098   0.74085   0.96172   0.0000000000
C          C      -0.29312   0.30441   0.61238   0.0000000000
C          C      -0.26258   0.37452   0.61238   0.0000000000
C          C       0.29312   0.69559   0.61238   0.0000000000
C          C       0.26258   0.62548   0.61238   0.0000000000
O          O      -0.26086   0.27956   0.61238   0.0000000000
O          O       0.26086   0.72044   0.61238   0.0000000000
