data_crystal

_cell_length_a    22.12000
_cell_length_b    22.12000
_cell_length_c    6.56000
_cell_angle_alpha 90.00000
_cell_angle_beta  90.00000
_cell_angle_gamma 120.00000

_space_group_name_Hall 'P 1'
_space_group_name_H-M_alt  'P 1'

loop_
_symmetry_equiv_pos_as_xyz
'x,y,z' 

loop_
_atom_site_label
_atom_site_type_symbol
_atom_site_fract_x
_atom_site_fract_y
_atom_site_fract_z
F          F       0.42831   0.35660   0.00000 
F          F       0.35777   0.42603   0.00000 
O          O       0.70395   0.47093   0.00000 
N          N       0.57967   0.43562   0.00000 
C          C       0.68597   0.40653   0.00000 
C          C       0.61379   0.35215   0.00000 
C          C       0.56120   0.36839   0.00000 
C          C       0.53790   0.46432   0.00000 
C          C       0.42812   0.46239   0.00000 
C          C       0.46465   0.42728   0.00000 
H          H       0.62234   0.47599   0.00000 
H          H       0.50783   0.32725   0.00000 
F          F       0.64340   0.07171   0.00000 
F          F       0.57397   0.93174   0.00000 
O          O       0.52907   0.23302   0.00000 
N          N       0.56438   0.14405   0.00000 
C          C       0.59347   0.27944   0.00000 
C          C       0.64785   0.26164   0.00000 
C          C       0.63161   0.19281   0.00000 
C          C       0.53568   0.07358   0.00000 
C          C       0.53761   0.96573   0.00000 
C          C       0.57272   0.03737   0.00000 
H          H       0.52401   0.14635   0.00000 
H          H       0.67275   0.18058   0.00000 
F          F       0.92829   0.57169   0.00000 
F          F       0.06826   0.64223   0.00000 
O          O       0.76698   0.29605   0.00000 
N          N       0.85595   0.42033   0.00000 
C          C       0.72056   0.31403   0.00000 
C          C       0.73836   0.38621   0.00000 
C          C       0.80719   0.43880   0.00000 
C          C       0.92642   0.46210   0.00000 
C          C       0.03427   0.57188   0.00000 
C          C       0.96263   0.53535   0.00000 
H          H       0.85365   0.37766   0.00000 
H          H       0.81942   0.49217   0.00000 
F          F       0.57169   0.64340   0.00000 
F          F       0.64223   0.57397   0.00000 
O          O       0.29605   0.52907   0.00000 
N          N       0.42033   0.56438   0.00000 
C          C       0.31403   0.59347   0.00000 
C          C       0.38621   0.64785   0.00000 
C          C       0.43880   0.63161   0.00000 
C          C       0.46210   0.53568   0.00000 
C          C       0.57188   0.53761   0.00000 
C          C       0.53535   0.57272   0.00000 
H          H       0.37766   0.52401   0.00000 
H          H       0.49217   0.67275   0.00000 
F          F       0.35660   0.92829   0.00000 
F          F       0.42603   0.06826   0.00000 
O          O       0.47093   0.76698   0.00000 
N          N       0.43562   0.85595   0.00000 
C          C       0.40653   0.72056   0.00000 
C          C       0.35215   0.73836   0.00000 
C          C       0.36839   0.80719   0.00000 
C          C       0.46432   0.92642   0.00000 
C          C       0.46239   0.03427   0.00000 
C          C       0.42728   0.96263   0.00000 
H          H       0.47599   0.85365   0.00000 
H          H       0.32725   0.81942   0.00000 
F          F       0.07171   0.42831   0.00000 
F          F       0.93174   0.35777   0.00000 
O          O       0.23302   0.70395   0.00000 
N          N       0.14405   0.57967   0.00000 
C          C       0.27944   0.68597   0.00000 
C          C       0.26164   0.61379   0.00000 
C          C       0.19281   0.56120   0.00000 
C          C       0.07358   0.53790   0.00000 
C          C       0.96573   0.42812   0.00000 
C          C       0.03737   0.46465   0.00000 
H          H       0.14635   0.62234   0.00000 
H          H       0.18058   0.50783   0.00000 
F          F       0.42831   0.35660   0.50000 
F          F       0.35777   0.42603   0.50000 
O          O       0.70395   0.47093   0.50000 
N          N       0.57967   0.43562   0.50000 
C          C       0.68597   0.40653   0.50000 
C          C       0.61379   0.35215   0.50000 
C          C       0.56120   0.36839   0.50000 
C          C       0.53790   0.46432   0.50000 
C          C       0.42812   0.46239   0.50000 
C          C       0.46465   0.42728   0.50000 
H          H       0.62234   0.47599   0.50000 
H          H       0.50783   0.32725   0.50000 
F          F       0.64340   0.07171   0.50000 
F          F       0.57397   0.93174   0.50000 
O          O       0.52907   0.23302   0.50000 
N          N       0.56438   0.14405   0.50000 
C          C       0.59347   0.27944   0.50000 
C          C       0.64785   0.26164   0.50000 
C          C       0.63161   0.19281   0.50000 
C          C       0.53568   0.07358   0.50000 
C          C       0.53761   0.96573   0.50000 
C          C       0.57272   0.03737   0.50000 
H          H       0.52401   0.14635   0.50000 
H          H       0.67275   0.18058   0.50000 
F          F       0.92829   0.57169   0.50000 
F          F       0.06826   0.64223   0.50000 
O          O       0.76698   0.29605   0.50000 
N          N       0.85595   0.42033   0.50000 
C          C       0.72056   0.31403   0.50000 
C          C       0.73836   0.38621   0.50000 
C          C       0.80719   0.43880   0.50000 
C          C       0.92642   0.46210   0.50000 
C          C       0.03427   0.57188   0.50000 
C          C       0.96263   0.53535   0.50000 
H          H       0.85365   0.37766   0.50000 
H          H       0.81942   0.49217   0.50000 
F          F       0.57169   0.64340   0.50000 
F          F       0.64223   0.57397   0.50000 
O          O       0.29605   0.52907   0.50000 
N          N       0.42033   0.56438   0.50000 
C          C       0.31403   0.59347   0.50000 
C          C       0.38621   0.64785   0.50000 
C          C       0.43880   0.63161   0.50000 
C          C       0.46210   0.53568   0.50000 
C          C       0.57188   0.53761   0.50000 
C          C       0.53535   0.57272   0.50000 
H          H       0.37766   0.52401   0.50000 
H          H       0.49217   0.67275   0.50000 
F          F       0.35660   0.92829   0.50000 
F          F       0.42603   0.06826   0.50000 
O          O       0.47093   0.76698   0.50000 
N          N       0.43562   0.85595   0.50000 
C          C       0.40653   0.72056   0.50000 
C          C       0.35215   0.73836   0.50000 
C          C       0.36839   0.80719   0.50000 
C          C       0.46432   0.92642   0.50000 
C          C       0.46239   0.03427   0.50000 
C          C       0.42728   0.96263   0.50000 
H          H       0.47599   0.85365   0.50000 
H          H       0.32725   0.81942   0.50000 
F          F       0.07171   0.42831   0.50000 
F          F       0.93174   0.35777   0.50000 
O          O       0.23302   0.70395   0.50000 
N          N       0.14405   0.57967   0.50000 
C          C       0.27944   0.68597   0.50000 
C          C       0.26164   0.61379   0.50000 
C          C       0.19281   0.56120   0.50000 
C          C       0.07358   0.53790   0.50000 
C          C       0.96573   0.42812   0.50000 
C          C       0.03737   0.46465   0.50000 
H          H       0.14635   0.62234   0.50000 
H          H       0.18058   0.50783   0.50000 
