data_crystal

_cell_length_a    29.21400
_cell_length_b    29.21400
_cell_length_c    7.20000
_cell_angle_alpha 90.00000
_cell_angle_beta  90.00000
_cell_angle_gamma 60.00000

_space_group_name_Hall 'P 1'
_space_group_name_H-M_alt  'P 1'

loop_
_symmetry_equiv_pos_as_xyz
'x,y,z' 

loop_
_atom_site_label
_atom_site_type_symbol
_atom_site_fract_x
_atom_site_fract_y
_atom_site_fract_z
N          N       0.38532   0.42352   0.19445 
C          C       0.40155   0.37180   0.19445 
C          C       0.41815   0.44426   0.19445 
C          C       0.47263   0.41232   0.19445 
C          C       0.50386   0.43458   0.19445 
C          C       0.48262   0.48904   0.19445 
C          C       0.42773   0.52049   0.19445 
C          C       0.39590   0.49854   0.19445 
H          H       0.44345   0.34200   0.19445 
H          H       0.34223   0.44635   0.19445 
H          H       0.35243   0.52337   0.19445 
H          H       0.54691   0.40815   0.19445 
H          H       0.40908   0.56366   0.19445 
N          N       0.49789   0.35286   0.19445 
O          O       0.48148   0.33157   0.29736 
O          O       0.53455   0.32650   0.09154 
N          N       0.61468   0.57648   0.19445 
C          C       0.59845   0.62820   0.19445 
C          C       0.58185   0.55574   0.19445 
C          C       0.52737   0.58768   0.19445 
C          C       0.49614   0.56543   0.19445 
C          C       0.51738   0.51096   0.19445 
C          C       0.57227   0.47951   0.19445 
C          C       0.60410   0.50146   0.19445 
H          H       0.55655   0.65800   0.19445 
H          H       0.65777   0.55365   0.19445 
H          H       0.64757   0.47663   0.19445 
H          H       0.45309   0.59185   0.19445 
H          H       0.59092   0.43634   0.19445 
N          N       0.50211   0.64714   0.19445 
O          O       0.51852   0.66843   0.29736 
O          O       0.46545   0.67350   0.09154 
N          N       0.19116   0.38532   0.19445 
C          C       0.22665   0.40155   0.19445 
C          C       0.13760   0.41815   0.19445 
C          C       0.11505   0.47263   0.19445 
C          C       0.06157   0.50386   0.19445 
C          C       0.02833   0.48262   0.19445 
C          C       0.05178   0.42773   0.19445 
C          C       0.10556   0.39590   0.19445 
H          H       0.21455   0.44345   0.19445 
H          H       0.21142   0.34223   0.19445 
H          H       0.12420   0.35243   0.19445 
H          H       0.04494   0.54691   0.19445 
H          H       0.02725   0.40908   0.19445 
N          N       0.14925   0.49789   0.19445 
O          O       0.18695   0.48148   0.29736 
O          O       0.13895   0.53455   0.09154 
N          N       0.80884   0.61468   0.19445 
C          C       0.77335   0.59845   0.19445 
C          C       0.86241   0.58185   0.19445 
C          C       0.88495   0.52737   0.19445 
C          C       0.93843   0.49614   0.19445 
C          C       0.97167   0.51738   0.19445 
C          C       0.94822   0.57227   0.19445 
C          C       0.89444   0.60410   0.19445 
H          H       0.78545   0.55655   0.19445 
H          H       0.78858   0.65777   0.19445 
H          H       0.87580   0.64757   0.19445 
H          H       0.95506   0.45309   0.19445 
H          H       0.97275   0.59092   0.19445 
N          N       0.85076   0.50211   0.19445 
O          O       0.81305   0.51852   0.29736 
O          O       0.86105   0.46545   0.09154 
N          N       0.42352   0.19116   0.19445 
C          C       0.37180   0.22665   0.19445 
C          C       0.44426   0.13760   0.19445 
C          C       0.41232   0.11505   0.19445 
C          C       0.43458   0.06157   0.19445 
C          C       0.48904   0.02833   0.19445 
C          C       0.52049   0.05178   0.19445 
C          C       0.49854   0.10556   0.19445 
H          H       0.34200   0.21455   0.19445 
H          H       0.44635   0.21142   0.19445 
H          H       0.52337   0.12420   0.19445 
H          H       0.40815   0.04494   0.19445 
H          H       0.56366   0.02725   0.19445 
N          N       0.35286   0.14925   0.19445 
O          O       0.33157   0.18695   0.29736 
O          O       0.32650   0.13895   0.09154 
N          N       0.57648   0.80884   0.19445 
C          C       0.62820   0.77335   0.19445 
C          C       0.55574   0.86241   0.19445 
C          C       0.58768   0.88495   0.19445 
C          C       0.56543   0.93843   0.19445 
C          C       0.51096   0.97167   0.19445 
C          C       0.47951   0.94822   0.19445 
C          C       0.50146   0.89444   0.19445 
H          H       0.65800   0.78545   0.19445 
H          H       0.55365   0.78858   0.19445 
H          H       0.47663   0.87580   0.19445 
H          H       0.59185   0.95506   0.19445 
H          H       0.43634   0.97275   0.19445 
N          N       0.64714   0.85075   0.19445 
O          O       0.66843   0.81305   0.29736 
O          O       0.67350   0.86105   0.09154 
C          C       0.68797   0.61178   0.19445 
C          C       0.63228   0.64489   0.19445 
O          O       0.70635   0.56641   0.19445 
C          C       0.61178   0.70025   0.19445 
C          C       0.64489   0.72284   0.19445 
O          O       0.56641   0.72724   0.19445 
C          C       0.70025   0.68797   0.19445 
C          C       0.72284   0.63228   0.19445 
O          O       0.72724   0.70635   0.19445 
C          C       0.31203   0.38822   0.19445 
C          C       0.36773   0.35511   0.19445 
O          O       0.29365   0.43359   0.19445 
C          C       0.38822   0.29975   0.19445 
C          C       0.35511   0.27716   0.19445 
O          O       0.43359   0.27276   0.19445 
C          C       0.29975   0.31203   0.19445 
C          C       0.27716   0.36773   0.19445 
O          O       0.27276   0.29365   0.19445 
N          N       0.38532   0.42352   0.69445 
C          C       0.40155   0.37180   0.69445 
C          C       0.41815   0.44426   0.69445 
C          C       0.47263   0.41232   0.69445 
C          C       0.50386   0.43458   0.69445 
C          C       0.48262   0.48904   0.69445 
C          C       0.42773   0.52049   0.69445 
C          C       0.39590   0.49854   0.69445 
H          H       0.44345   0.34200   0.69445 
H          H       0.34223   0.44635   0.69445 
H          H       0.35243   0.52337   0.69445 
H          H       0.54691   0.40815   0.69445 
H          H       0.40908   0.56366   0.69445 
N          N       0.49789   0.35286   0.69445 
O          O       0.48148   0.33157   0.79736 
O          O       0.53455   0.32650   0.59154 
N          N       0.61468   0.57648   0.69445 
C          C       0.59845   0.62820   0.69445 
C          C       0.58185   0.55574   0.69445 
C          C       0.52737   0.58768   0.69445 
C          C       0.49614   0.56543   0.69445 
C          C       0.51738   0.51096   0.69445 
C          C       0.57227   0.47951   0.69445 
C          C       0.60410   0.50146   0.69445 
H          H       0.55655   0.65800   0.69445 
H          H       0.65777   0.55365   0.69445 
H          H       0.64757   0.47663   0.69445 
H          H       0.45309   0.59185   0.69445 
H          H       0.59092   0.43634   0.69445 
N          N       0.50211   0.64714   0.69445 
O          O       0.51852   0.66843   0.79736 
O          O       0.46545   0.67350   0.59154 
N          N       0.19116   0.38532   0.69445 
C          C       0.22665   0.40155   0.69445 
C          C       0.13760   0.41815   0.69445 
C          C       0.11505   0.47263   0.69445 
C          C       0.06157   0.50386   0.69445 
C          C       0.02833   0.48262   0.69445 
C          C       0.05178   0.42773   0.69445 
C          C       0.10556   0.39590   0.69445 
H          H       0.21455   0.44345   0.69445 
H          H       0.21142   0.34223   0.69445 
H          H       0.12420   0.35243   0.69445 
H          H       0.04494   0.54691   0.69445 
H          H       0.02725   0.40908   0.69445 
N          N       0.14925   0.49789   0.69445 
O          O       0.18695   0.48148   0.79736 
O          O       0.13895   0.53455   0.59154 
N          N       0.80884   0.61468   0.69445 
C          C       0.77335   0.59845   0.69445 
C          C       0.86241   0.58185   0.69445 
C          C       0.88495   0.52737   0.69445 
C          C       0.93843   0.49614   0.69445 
C          C       0.97167   0.51738   0.69445 
C          C       0.94822   0.57227   0.69445 
C          C       0.89444   0.60410   0.69445 
H          H       0.78545   0.55655   0.69445 
H          H       0.78858   0.65777   0.69445 
H          H       0.87580   0.64757   0.69445 
H          H       0.95506   0.45309   0.69445 
H          H       0.97275   0.59092   0.69445 
N          N       0.85076   0.50211   0.69445 
O          O       0.81305   0.51852   0.79736 
O          O       0.86105   0.46545   0.59154 
N          N       0.42352   0.19116   0.69445 
C          C       0.37180   0.22665   0.69445 
C          C       0.44426   0.13760   0.69445 
C          C       0.41232   0.11505   0.69445 
C          C       0.43458   0.06157   0.69445 
C          C       0.48904   0.02833   0.69445 
C          C       0.52049   0.05178   0.69445 
C          C       0.49854   0.10556   0.69445 
H          H       0.34200   0.21455   0.69445 
H          H       0.44635   0.21142   0.69445 
H          H       0.52337   0.12420   0.69445 
H          H       0.40815   0.04494   0.69445 
H          H       0.56366   0.02725   0.69445 
N          N       0.35286   0.14925   0.69445 
O          O       0.33157   0.18695   0.79736 
O          O       0.32650   0.13895   0.59154 
N          N       0.57648   0.80884   0.69445 
C          C       0.62820   0.77335   0.69445 
C          C       0.55574   0.86241   0.69445 
C          C       0.58768   0.88495   0.69445 
C          C       0.56543   0.93843   0.69445 
C          C       0.51096   0.97167   0.69445 
C          C       0.47951   0.94822   0.69445 
C          C       0.50146   0.89444   0.69445 
H          H       0.65800   0.78545   0.69445 
H          H       0.55365   0.78858   0.69445 
H          H       0.47663   0.87580   0.69445 
H          H       0.59185   0.95506   0.69445 
H          H       0.43634   0.97275   0.69445 
N          N       0.64714   0.85075   0.69445 
O          O       0.66843   0.81305   0.79736 
O          O       0.67350   0.86105   0.59154 
C          C       0.68797   0.61178   0.69445 
C          C       0.63228   0.64489   0.69445 
O          O       0.70635   0.56641   0.69445 
C          C       0.61178   0.70025   0.69445 
C          C       0.64489   0.72284   0.69445 
O          O       0.56641   0.72724   0.69445 
C          C       0.70025   0.68797   0.69445 
C          C       0.72284   0.63228   0.69445 
O          O       0.72724   0.70635   0.69445 
C          C       0.31203   0.38822   0.69445 
C          C       0.36773   0.35511   0.69445 
O          O       0.29365   0.43359   0.69445 
C          C       0.38822   0.29975   0.69445 
C          C       0.35511   0.27716   0.69445 
O          O       0.43359   0.27276   0.69445 
C          C       0.29975   0.31203   0.69445 
C          C       0.27716   0.36773   0.69445 
O          O       0.27276   0.29365   0.69445 
