data_crystal

_cell_length_a    29.28000
_cell_length_b    29.28000
_cell_length_c    6.50000
_cell_angle_alpha 90.00000
_cell_angle_beta  90.00000
_cell_angle_gamma 120.00000

_space_group_name_Hall 'P 1'
_space_group_name_H-M_alt  'P 1'

loop_
_symmetry_equiv_pos_as_xyz
'x,y,z' 

loop_
_atom_site_label
_atom_site_type_symbol
_atom_site_fract_x
_atom_site_fract_y
_atom_site_fract_z
H          H       0.54955   0.66375   0.10673 
H          H       0.33625   0.88580   0.10673 
H          H       0.11420   0.45045   0.10673 
H          H       0.45045   0.33625   0.10673 
H          H       0.66375   0.11420   0.10673 
H          H       0.88580   0.54955   0.10673 
H          H       0.45045   0.33625  -0.10673 
H          H       0.66375   0.11420  -0.10673 
H          H       0.88580   0.54955  -0.10673 
H          H       0.54955   0.66375  -0.10673 
H          H       0.33625   0.88580  -0.10673 
H          H       0.11420   0.45045  -0.10673 
O          O       0.28755   0.56179   0.00000 
N          N       0.38477   0.57293   0.00000 
C          C       0.30922   0.60977   0.00000 
C          C       0.39846   0.62504   0.00000 
C          C       0.42288   0.55812   0.00000 
C          C       0.47970   0.59233   0.00000 
C          C       0.50767   0.56659   0.00000 
C          C       0.48375   0.51191   0.00000 
C          C       0.42892   0.48087   0.00000 
C          C       0.39964   0.50379   0.00000 
C          C       0.36596   0.64285   0.00000 
H          H       0.43739   0.65183   0.00000 
C          C       0.51847   0.65311   0.00000 
H          H       0.34618   0.54274   0.00000 
H          H       0.35718   0.47793   0.00000 
H          H       0.54925   0.59149   0.00000 
H          H       0.40537   0.43880   0.00000 
H          H       0.51194   0.68695   0.00000 
O          O       0.43821   0.72576   0.00000 
N          N       0.42707   0.81184   0.00000 
C          C       0.39023   0.69945   0.00000 
C          C       0.37496   0.77342   0.00000 
C          C       0.44188   0.86476   0.00000 
C          C       0.40767   0.88737   0.00000 
C          C       0.43341   0.94108   0.00000 
C          C       0.48809   0.97184   0.00000 
C          C       0.51913   0.94805   0.00000 
C          C       0.49621   0.89585   0.00000 
C          C       0.35715   0.72311   0.00000 
H          H       0.34817   0.78556   0.00000 
C          C       0.34689   0.86536   0.00000 
H          H       0.45726   0.80344   0.00000 
H          H       0.52207   0.87925   0.00000 
H          H       0.40851   0.95776   0.00000 
H          H       0.56120   0.96657   0.00000 
H          H       0.31305   0.82499   0.00000 
O          O       0.27424   0.71245   0.00000 
N          N       0.18816   0.61523   0.00000 
C          C       0.30055   0.69078   0.00000 
C          C       0.22658   0.60154   0.00000 
C          C       0.13524   0.57712   0.00000 
C          C       0.11263   0.52030   0.00000 
C          C       0.05892   0.49233   0.00000 
C          C       0.02816   0.51625   0.00000 
C          C       0.05195   0.57108   0.00000 
C          C       0.10415   0.60036   0.00000 
C          C       0.27689   0.63404   0.00000 
H          H       0.21444   0.56261   0.00000 
C          C       0.13464   0.48153   0.00000 
H          H       0.19656   0.65382   0.00000 
H          H       0.12075   0.64282   0.00000 
H          H       0.04224   0.45075   0.00000 
H          H       0.03343   0.59463   0.00000 
H          H       0.17501   0.48806   0.00000 
O          O       0.71245   0.43821   0.00000 
N          N       0.61523   0.42707   0.00000 
C          C       0.69078   0.39023   0.00000 
C          C       0.60154   0.37496   0.00000 
C          C       0.57712   0.44188   0.00000 
C          C       0.52030   0.40767   0.00000 
C          C       0.49233   0.43341   0.00000 
C          C       0.51625   0.48809   0.00000 
C          C       0.57108   0.51913   0.00000 
C          C       0.60036   0.49621   0.00000 
C          C       0.63404   0.35715   0.00000 
H          H       0.56261   0.34817   0.00000 
C          C       0.48153   0.34689   0.00000 
H          H       0.65382   0.45726   0.00000 
H          H       0.64282   0.52207   0.00000 
H          H       0.45075   0.40851   0.00000 
H          H       0.59463   0.56120   0.00000 
H          H       0.48806   0.31305   0.00000 
O          O       0.56179   0.27424   0.00000 
N          N       0.57293   0.18816   0.00000 
C          C       0.60977   0.30055   0.00000 
C          C       0.62504   0.22658   0.00000 
C          C       0.55812   0.13524   0.00000 
C          C       0.59233   0.11263   0.00000 
C          C       0.56659   0.05892   0.00000 
C          C       0.51191   0.02816   0.00000 
C          C       0.48087   0.05195   0.00000 
C          C       0.50379   0.10415   0.00000 
C          C       0.64285   0.27689   0.00000 
H          H       0.65183   0.21444   0.00000 
C          C       0.65311   0.13464   0.00000 
H          H       0.54274   0.19656   0.00000 
H          H       0.47793   0.12075   0.00000 
H          H       0.59149   0.04224   0.00000 
H          H       0.43880   0.03343   0.00000 
H          H       0.68695   0.17501   0.00000 
O          O       0.72576   0.28755   0.00000 
N          N       0.81184   0.38477   0.00000 
C          C       0.69945   0.30922   0.00000 
C          C       0.77342   0.39846   0.00000 
C          C       0.86476   0.42288   0.00000 
C          C       0.88737   0.47970   0.00000 
C          C       0.94108   0.50767   0.00000 
C          C       0.97184   0.48375   0.00000 
C          C       0.94805   0.42892   0.00000 
C          C       0.89585   0.39964   0.00000 
C          C       0.72311   0.36596   0.00000 
H          H       0.78556   0.43739   0.00000 
C          C       0.86536   0.51847   0.00000 
H          H       0.80344   0.34618   0.00000 
H          H       0.87925   0.35718   0.00000 
H          H       0.95776   0.54925   0.00000 
H          H       0.96657   0.40537   0.00000 
H          H       0.82499   0.51194   0.00000 
H          H       0.54955   0.66375   0.60673 
H          H       0.33625   0.88580   0.60673 
H          H       0.11420   0.45045   0.60673 
H          H       0.45045   0.33625   0.60673 
H          H       0.66375   0.11420   0.60673 
H          H       0.88580   0.54955   0.60673 
H          H       0.45045   0.33625   0.39327 
H          H       0.66375   0.11420   0.39327 
H          H       0.88580   0.54955   0.39327 
H          H       0.54955   0.66375   0.39327 
H          H       0.33625   0.88580   0.39327 
H          H       0.11420   0.45045   0.39327 
O          O       0.28755   0.56179   0.50000 
N          N       0.38477   0.57293   0.50000 
C          C       0.30922   0.60977   0.50000 
C          C       0.39846   0.62504   0.50000 
C          C       0.42288   0.55812   0.50000 
C          C       0.47970   0.59233   0.50000 
C          C       0.50767   0.56659   0.50000 
C          C       0.48375   0.51191   0.50000 
C          C       0.42892   0.48087   0.50000 
C          C       0.39964   0.50379   0.50000 
C          C       0.36596   0.64285   0.50000 
H          H       0.43739   0.65183   0.50000 
C          C       0.51847   0.65311   0.50000 
H          H       0.34618   0.54274   0.50000 
H          H       0.35718   0.47793   0.50000 
H          H       0.54925   0.59149   0.50000 
H          H       0.40537   0.43880   0.50000 
H          H       0.51194   0.68695   0.50000 
O          O       0.43821   0.72576   0.50000 
N          N       0.42707   0.81184   0.50000 
C          C       0.39023   0.69945   0.50000 
C          C       0.37496   0.77342   0.50000 
C          C       0.44188   0.86476   0.50000 
C          C       0.40767   0.88737   0.50000 
C          C       0.43341   0.94108   0.50000 
C          C       0.48809   0.97184   0.50000 
C          C       0.51913   0.94805   0.50000 
C          C       0.49621   0.89585   0.50000 
C          C       0.35715   0.72311   0.50000 
H          H       0.34817   0.78556   0.50000 
C          C       0.34689   0.86536   0.50000 
H          H       0.45726   0.80344   0.50000 
H          H       0.52207   0.87925   0.50000 
H          H       0.40851   0.95776   0.50000 
H          H       0.56120   0.96657   0.50000 
H          H       0.31305   0.82499   0.50000 
O          O       0.27424   0.71245   0.50000 
N          N       0.18816   0.61523   0.50000 
C          C       0.30055   0.69078   0.50000 
C          C       0.22658   0.60154   0.50000 
C          C       0.13524   0.57712   0.50000 
C          C       0.11263   0.52030   0.50000 
C          C       0.05892   0.49233   0.50000 
C          C       0.02816   0.51625   0.50000 
C          C       0.05195   0.57108   0.50000 
C          C       0.10415   0.60036   0.50000 
C          C       0.27689   0.63404   0.50000 
H          H       0.21444   0.56261   0.50000 
C          C       0.13464   0.48153   0.50000 
H          H       0.19656   0.65382   0.50000 
H          H       0.12075   0.64282   0.50000 
H          H       0.04224   0.45075   0.50000 
H          H       0.03343   0.59463   0.50000 
H          H       0.17501   0.48806   0.50000 
O          O       0.71245   0.43821   0.50000 
N          N       0.61523   0.42707   0.50000 
C          C       0.69078   0.39023   0.50000 
C          C       0.60154   0.37496   0.50000 
C          C       0.57712   0.44188   0.50000 
C          C       0.52030   0.40767   0.50000 
C          C       0.49233   0.43341   0.50000 
C          C       0.51625   0.48809   0.50000 
C          C       0.57108   0.51913   0.50000 
C          C       0.60036   0.49621   0.50000 
C          C       0.63404   0.35715   0.50000 
H          H       0.56261   0.34817   0.50000 
C          C       0.48153   0.34689   0.50000 
H          H       0.65382   0.45726   0.50000 
H          H       0.64282   0.52207   0.50000 
H          H       0.45075   0.40851   0.50000 
H          H       0.59463   0.56120   0.50000 
H          H       0.48806   0.31305   0.50000 
O          O       0.56179   0.27424   0.50000 
N          N       0.57293   0.18816   0.50000 
C          C       0.60977   0.30055   0.50000 
C          C       0.62504   0.22658   0.50000 
C          C       0.55812   0.13524   0.50000 
C          C       0.59233   0.11263   0.50000 
C          C       0.56659   0.05892   0.50000 
C          C       0.51191   0.02816   0.50000 
C          C       0.48087   0.05195   0.50000 
C          C       0.50379   0.10415   0.50000 
C          C       0.64285   0.27689   0.50000 
H          H       0.65183   0.21444   0.50000 
C          C       0.65311   0.13464   0.50000 
H          H       0.54274   0.19656   0.50000 
H          H       0.47793   0.12075   0.50000 
H          H       0.59149   0.04224   0.50000 
H          H       0.43880   0.03343   0.50000 
H          H       0.68695   0.17501   0.50000 
O          O       0.72576   0.28755   0.50000 
N          N       0.81184   0.38477   0.50000 
C          C       0.69945   0.30922   0.50000 
C          C       0.77342   0.39846   0.50000 
C          C       0.86476   0.42288   0.50000 
C          C       0.88737   0.47970   0.50000 
C          C       0.94108   0.50767   0.50000 
C          C       0.97184   0.48375   0.50000 
C          C       0.94805   0.42892   0.50000 
C          C       0.89585   0.39964   0.50000 
C          C       0.72311   0.36596   0.50000 
H          H       0.78556   0.43739   0.50000 
C          C       0.86536   0.51847   0.50000 
H          H       0.80344   0.34618   0.50000 
H          H       0.87925   0.35718   0.50000 
H          H       0.95776   0.54925   0.50000 
H          H       0.96657   0.40537   0.50000 
H          H       0.82499   0.51194   0.50000 
