data_crystal

_cell_length_a    32.34000
_cell_length_b    32.34000
_cell_length_c    6.80000
_cell_angle_alpha 90.00000
_cell_angle_beta  90.00000
_cell_angle_gamma 120.00000

_space_group_name_Hall 'P 1'
_space_group_name_H-M_alt  'P 1'

loop_
_symmetry_equiv_pos_as_xyz
'x,y,z' 

loop_
_atom_site_label
_atom_site_type_symbol
_atom_site_fract_x
_atom_site_fract_y
_atom_site_fract_z
C          C       0.54762   0.54762   0.73530 
C          C       0.54762   0.50000   0.73530 
C          C       0.50000   0.45238   0.73530 
C          C       0.45238   0.45238   0.73530 
C          C       0.45238   0.50000   0.73530 
C          C       0.50000   0.54762   0.73530 
C          C       0.40476   0.40476   0.73530 
C          C       0.40476   0.35714   0.73530 
C          C       0.45238   0.35714   0.73530 
C          C       0.50000   0.40476   0.73530 
C          C       0.59524   0.59524   0.73530 
C          C       0.64286   0.59524   0.73530 
C          C       0.64286   0.54762   0.73530 
C          C       0.59524   0.50000   0.73530 
C          C       0.50000   0.59524   0.73530 
C          C       0.45238   0.59524   0.73530 
C          C       0.40476   0.54762   0.73530 
C          C       0.40476   0.50000   0.73530 
N          N       0.45238   0.30952   0.73530 
C          C       0.40476   0.26190   0.73530 
C          C       0.35714   0.26190   0.73530 
N          N       0.35714   0.30952   0.73530 
N          N       0.69048   0.54762   0.73530 
C          C       0.73810   0.59524   0.73530 
C          C       0.73810   0.64286   0.73530 
N          N       0.69048   0.64286   0.73530 
N          N       0.35714   0.54762   0.73530 
C          C       0.35714   0.59524   0.73530 
C          C       0.40476   0.64286   0.73530 
N          N       0.45238   0.64286   0.73530 
H          H       0.36951   0.40476   0.73530 
H          H       0.53525   0.40476   0.73530 
H          H       0.59524   0.63049   0.73530 
H          H       0.59524   0.46475   0.73530 
H          H       0.53525   0.63049   0.73530 
H          H       0.36951   0.46475   0.73530 
C          C       0.11905   0.78571   0.73530 
C          C       0.11905   0.83333   0.73530 
C          C       0.16667   0.88095   0.73530 
C          C       0.21429   0.88095   0.73530 
C          C       0.21429   0.83333   0.73530 
C          C       0.16667   0.78571   0.73530 
C          C       0.26190   0.92857   0.73530 
C          C       0.26190   0.97619   0.73530 
C          C       0.21429   0.97619   0.73530 
C          C       0.16667   0.92857   0.73530 
C          C       0.07143   0.73810   0.73530 
C          C       0.02381   0.73810   0.73530 
C          C       0.02381   0.78571   0.73530 
C          C       0.07143   0.83333   0.73530 
C          C       0.16667   0.73810   0.73530 
C          C       0.21429   0.73810   0.73530 
C          C       0.26190   0.78571   0.73530 
C          C       0.26190   0.83333   0.73530 
N          N       0.21429   0.02381   0.73530 
C          C       0.26190   0.07143   0.73530 
C          C       0.30952   0.07143   0.73530 
N          N       0.30952   0.02381   0.73530 
N          N       0.97619   0.78571   0.73530 
C          C       0.92857   0.73810   0.73530 
C          C       0.92857   0.69048   0.73530 
N          N       0.97619   0.69048   0.73530 
N          N       0.30952   0.78571   0.73530 
C          C       0.30952   0.73810   0.73530 
C          C       0.26190   0.69048   0.73530 
N          N       0.21429   0.69048   0.73530 
H          H       0.29716   0.92857   0.73530 
H          H       0.13142   0.92857   0.73530 
H          H       0.07143   0.70284   0.73530 
H          H       0.07143   0.86858   0.73530 
H          H       0.13142   0.70284   0.73530 
H          H       0.29716   0.86858   0.73530 
C          C       0.88095   0.73810   0.73530 
C          C       0.83333   0.69048   0.73530 
C          C       0.83333   0.64286   0.73530 
C          C       0.88095   0.64286   0.73530 
C          C       0.78571   0.59524   0.73530 
C          C       0.78571   0.69048   0.73530 
C          C       0.78571   0.73810   0.73530 
C          C       0.83333   0.78571   0.73530 
C          C       0.88095   0.78571   0.73530 
C          C       0.88095   0.59524   0.73530 
C          C       0.83333   0.54762   0.73530 
C          C       0.78571   0.54762   0.73530 
H          H       0.75046   0.73810   0.73530 
H          H       0.83333   0.82096   0.73530 
H          H       0.91620   0.82096   0.73530 
H          H       0.91620   0.59524   0.73530 
H          H       0.83333   0.51237   0.73530 
H          H       0.75046   0.51237   0.73530 
C          C       0.35714   0.73810   0.73530 
C          C       0.35714   0.69048   0.73530 
C          C       0.30952   0.64286   0.73530 
C          C       0.26190   0.64286   0.73530 
C          C       0.30952   0.59524   0.73530 
C          C       0.40476   0.69048   0.73530 
C          C       0.45238   0.73810   0.73530 
C          C       0.45238   0.78571   0.73530 
C          C       0.40476   0.78571   0.73530 
C          C       0.21429   0.59524   0.73530 
C          C       0.21429   0.54762   0.73530 
C          C       0.26190   0.54762   0.73530 
H          H       0.48763   0.73810   0.73530 
H          H       0.48763   0.82096   0.73530 
H          H       0.40476   0.82096   0.73530 
H          H       0.17904   0.59524   0.73530 
H          H       0.17904   0.51237   0.73530 
H          H       0.26190   0.51237   0.73530 
C          C       0.26190   0.11905   0.73530 
C          C       0.30952   0.16667   0.73530 
C          C       0.35714   0.16667   0.73530 
C          C       0.35714   0.11905   0.73530 
C          C       0.40476   0.21429   0.73530 
C          C       0.30952   0.21429   0.73530 
C          C       0.26190   0.21429   0.73530 
C          C       0.21429   0.16667   0.73530 
C          C       0.21429   0.11905   0.73530 
C          C       0.40476   0.11905   0.73530 
C          C       0.45238   0.16667   0.73530 
C          C       0.45238   0.21429   0.73530 
H          H       0.26190   0.24954   0.73530 
H          H       0.17904   0.16667   0.73530 
H          H       0.17904   0.08380   0.73530 
H          H       0.40476   0.08380   0.73530 
H          H       0.48763   0.16667   0.73530 
H          H       0.48763   0.24954   0.73530 
C          C       0.54762   0.54762   1.23530 
C          C       0.54762   0.50000   1.23530 
C          C       0.50000   0.45238   1.23530 
C          C       0.45238   0.45238   1.23530 
C          C       0.45238   0.50000   1.23530 
C          C       0.50000   0.54762   1.23530 
C          C       0.40476   0.40476   1.23530 
C          C       0.40476   0.35714   1.23530 
C          C       0.45238   0.35714   1.23530 
C          C       0.50000   0.40476   1.23530 
C          C       0.59524   0.59524   1.23530 
C          C       0.64286   0.59524   1.23530 
C          C       0.64286   0.54762   1.23530 
C          C       0.59524   0.50000   1.23530 
C          C       0.50000   0.59524   1.23530 
C          C       0.45238   0.59524   1.23530 
C          C       0.40476   0.54762   1.23530 
C          C       0.40476   0.50000   1.23530 
N          N       0.45238   0.30952   1.23530 
C          C       0.40476   0.26190   1.23530 
C          C       0.35714   0.26190   1.23530 
N          N       0.35714   0.30952   1.23530 
N          N       0.69048   0.54762   1.23530 
C          C       0.73810   0.59524   1.23530 
C          C       0.73810   0.64286   1.23530 
N          N       0.69048   0.64286   1.23530 
N          N       0.35714   0.54762   1.23530 
C          C       0.35714   0.59524   1.23530 
C          C       0.40476   0.64286   1.23530 
N          N       0.45238   0.64286   1.23530 
H          H       0.36951   0.40476   1.23530 
H          H       0.53525   0.40476   1.23530 
H          H       0.59524   0.63049   1.23530 
H          H       0.59524   0.46475   1.23530 
H          H       0.53525   0.63049   1.23530 
H          H       0.36951   0.46475   1.23530 
C          C       0.11905   0.78571   1.23530 
C          C       0.11905   0.83333   1.23530 
C          C       0.16667   0.88095   1.23530 
C          C       0.21429   0.88095   1.23530 
C          C       0.21429   0.83333   1.23530 
C          C       0.16667   0.78571   1.23530 
C          C       0.26190   0.92857   1.23530 
C          C       0.26190   0.97619   1.23530 
C          C       0.21429   0.97619   1.23530 
C          C       0.16667   0.92857   1.23530 
C          C       0.07143   0.73810   1.23530 
C          C       0.02381   0.73810   1.23530 
C          C       0.02381   0.78571   1.23530 
C          C       0.07143   0.83333   1.23530 
C          C       0.16667   0.73810   1.23530 
C          C       0.21429   0.73810   1.23530 
C          C       0.26190   0.78571   1.23530 
C          C       0.26190   0.83333   1.23530 
N          N       0.21429   0.02381   1.23530 
C          C       0.26190   0.07143   1.23530 
C          C       0.30952   0.07143   1.23530 
N          N       0.30952   0.02381   1.23530 
N          N       0.97619   0.78571   1.23530 
C          C       0.92857   0.73810   1.23530 
C          C       0.92857   0.69048   1.23530 
N          N       0.97619   0.69048   1.23530 
N          N       0.30952   0.78571   1.23530 
C          C       0.30952   0.73810   1.23530 
C          C       0.26190   0.69048   1.23530 
N          N       0.21429   0.69048   1.23530 
H          H       0.29716   0.92857   1.23530 
H          H       0.13142   0.92857   1.23530 
H          H       0.07143   0.70284   1.23530 
H          H       0.07143   0.86858   1.23530 
H          H       0.13142   0.70284   1.23530 
H          H       0.29716   0.86858   1.23530 
C          C       0.88095   0.73810   1.23530 
C          C       0.83333   0.69048   1.23530 
C          C       0.83333   0.64286   1.23530 
C          C       0.88095   0.64286   1.23530 
C          C       0.78571   0.59524   1.23530 
C          C       0.78571   0.69048   1.23530 
C          C       0.78571   0.73810   1.23530 
C          C       0.83333   0.78571   1.23530 
C          C       0.88095   0.78571   1.23530 
C          C       0.88095   0.59524   1.23530 
C          C       0.83333   0.54762   1.23530 
C          C       0.78571   0.54762   1.23530 
H          H       0.75046   0.73810   1.23530 
H          H       0.83333   0.82096   1.23530 
H          H       0.91620   0.82096   1.23530 
H          H       0.91620   0.59524   1.23530 
H          H       0.83333   0.51237   1.23530 
H          H       0.75046   0.51237   1.23530 
C          C       0.35714   0.73810   1.23530 
C          C       0.35714   0.69048   1.23530 
C          C       0.30952   0.64286   1.23530 
C          C       0.26190   0.64286   1.23530 
C          C       0.30952   0.59524   1.23530 
C          C       0.40476   0.69048   1.23530 
C          C       0.45238   0.73810   1.23530 
C          C       0.45238   0.78571   1.23530 
C          C       0.40476   0.78571   1.23530 
C          C       0.21429   0.59524   1.23530 
C          C       0.21429   0.54762   1.23530 
C          C       0.26190   0.54762   1.23530 
H          H       0.48763   0.73810   1.23530 
H          H       0.48763   0.82096   1.23530 
H          H       0.40476   0.82096   1.23530 
H          H       0.17904   0.59524   1.23530 
H          H       0.17904   0.51237   1.23530 
H          H       0.26190   0.51237   1.23530 
C          C       0.26190   0.11905   1.23530 
C          C       0.30952   0.16667   1.23530 
C          C       0.35714   0.16667   1.23530 
C          C       0.35714   0.11905   1.23530 
C          C       0.40476   0.21429   1.23530 
C          C       0.30952   0.21429   1.23530 
C          C       0.26190   0.21429   1.23530 
C          C       0.21429   0.16667   1.23530 
C          C       0.21429   0.11905   1.23530 
C          C       0.40476   0.11905   1.23530 
C          C       0.45238   0.16667   1.23530 
C          C       0.45238   0.21429   1.23530 
H          H       0.26190   0.24954   1.23530 
H          H       0.17904   0.16667   1.23530 
H          H       0.17904   0.08380   1.23530 
H          H       0.40476   0.08380   1.23530 
H          H       0.48763   0.16667   1.23530 
H          H       0.48763   0.24954   1.23530 
