data_crystal

_cell_length_a    32.84000
_cell_length_b    32.84000
_cell_length_c    6.90000
_cell_angle_alpha 90.00000
_cell_angle_beta  90.00000
_cell_angle_gamma 120.00000

_space_group_name_Hall 'P 1'
_space_group_name_H-M_alt  'P 1'

loop_
_symmetry_equiv_pos_as_xyz
'x,y,z' 

loop_
_atom_site_label
_atom_site_type_symbol
_atom_site_fract_x
_atom_site_fract_y
_atom_site_fract_z
O          O       0.38627   0.54474   0.25000 
C          C       0.33610   0.58098   0.25000 
C          C       0.33493   0.62329   0.25000 
C          C       0.37944   0.58304   0.25000 
B          B       0.43773   0.56900   0.25000 
C          C       0.46592   0.54266   0.25000 
O          O       0.53978   0.37966   0.25000 
C          C       0.57902   0.33223   0.25000 
C          C       0.62229   0.33333   0.25000 
C          C       0.57921   0.37468   0.25000 
S          S       0.52663   0.57219   0.25000 
C          C       0.52197   0.51839   0.25000 
C          C       0.44396   0.49389   0.25000 
H          H       0.30596   0.54627   0.25000 
H          H       0.54496   0.30118   0.25000 
H          H       0.40644   0.46960   0.25000 
O          O       0.45526   0.84153   0.25000 
C          C       0.41902   0.75512   0.25000 
C          C       0.37671   0.71164   0.25000 
C          C       0.41696   0.79640   0.25000 
B          B       0.43100   0.86873   0.25000 
C          C       0.45734   0.92326   0.25000 
O          O       0.62034   0.16012   0.25000 
C          C       0.66777   0.24679   0.25000 
C          C       0.66667   0.28896   0.25000 
C          C       0.62532   0.20453   0.25000 
S          S       0.42781   0.95444   0.25000 
C          C       0.48161   0.00358   0.25000 
C          C       0.50611   0.95007   0.25000 
H          H       0.45373   0.75969   0.25000 
H          H       0.69882   0.24378   0.25000 
H          H       0.53040   0.93683   0.25000 
O          O       0.15847   0.61373   0.25000 
C          C       0.24488   0.66390   0.25000 
C          C       0.28836   0.66507   0.25000 
C          C       0.20360   0.62056   0.25000 
B          B       0.13127   0.56227   0.25000 
C          C       0.07674   0.53408   0.25000 
O          O       0.83988   0.46022   0.25000 
C          C       0.75321   0.42098   0.25000 
C          C       0.71104   0.37771   0.25000 
C          C       0.79547   0.42079   0.25000 
S          S       0.04556   0.47337   0.25000 
C          C       0.99642   0.47803   0.25000 
C          C       0.04993   0.55604   0.25000 
H          H       0.24031   0.69404   0.25000 
H          H       0.75622   0.45504   0.25000 
H          H       0.06317   0.59356   0.25000 
O          O       0.61373   0.45526   0.25000 
C          C       0.66390   0.41902   0.25000 
C          C       0.66507   0.37671   0.25000 
C          C       0.62056   0.41696   0.25000 
B          B       0.56227   0.43100   0.25000 
C          C       0.53408   0.45734   0.25000 
O          O       0.46022   0.62034   0.25000 
C          C       0.42098   0.66777   0.25000 
C          C       0.37771   0.66667   0.25000 
C          C       0.42079   0.62532   0.25000 
S          S       0.47337   0.42781   0.25000 
C          C       0.47803   0.48161   0.25000 
C          C       0.55604   0.50611   0.25000 
H          H       0.69404   0.45373   0.25000 
H          H       0.45504   0.69882   0.25000 
H          H       0.59356   0.53040   0.25000 
O          O       0.54474   0.15847   0.25000 
C          C       0.58098   0.24488   0.25000 
C          C       0.62329   0.28836   0.25000 
C          C       0.58304   0.20360   0.25000 
B          B       0.56900   0.13127   0.25000 
C          C       0.54266   0.07674   0.25000 
O          O       0.37966   0.83988   0.25000 
C          C       0.33223   0.75321   0.25000 
C          C       0.33333   0.71104   0.25000 
C          C       0.37468   0.79547   0.25000 
S          S       0.57219   0.04556   0.25000 
C          C       0.51839   0.99642   0.25000 
C          C       0.49389   0.04993   0.25000 
H          H       0.54627   0.24031   0.25000 
H          H       0.30118   0.75622   0.25000 
H          H       0.46960   0.06317   0.25000 
O          O       0.84153   0.38627   0.25000 
C          C       0.75512   0.33610   0.25000 
C          C       0.71164   0.33493   0.25000 
C          C       0.79640   0.37944   0.25000 
B          B       0.86873   0.43773   0.25000 
C          C       0.92326   0.46592   0.25000 
O          O       0.16012   0.53978   0.25000 
C          C       0.24679   0.57902   0.25000 
C          C       0.28896   0.62229   0.25000 
C          C       0.20453   0.57921   0.25000 
S          S       0.95444   0.52663   0.25000 
C          C       0.00358   0.52197   0.25000 
C          C       0.95007   0.44396   0.25000 
H          H       0.75969   0.30596   0.25000 
H          H       0.24378   0.54496   0.25000 
H          H       0.93683   0.40644   0.25000 
O          O       0.38627   0.54474   0.75000 
C          C       0.33610   0.58098   0.75000 
C          C       0.33493   0.62329   0.75000 
C          C       0.37944   0.58304   0.75000 
B          B       0.43773   0.56900   0.75000 
C          C       0.46592   0.54266   0.75000 
O          O       0.53978   0.37966   0.75000 
C          C       0.57902   0.33223   0.75000 
C          C       0.62229   0.33333   0.75000 
C          C       0.57921   0.37468   0.75000 
S          S       0.52663   0.57219   0.75000 
C          C       0.52197   0.51839   0.75000 
C          C       0.44396   0.49389   0.75000 
H          H       0.30596   0.54627   0.75000 
H          H       0.54496   0.30118   0.75000 
H          H       0.40644   0.46960   0.75000 
O          O       0.45526   0.84153   0.75000 
C          C       0.41902   0.75512   0.75000 
C          C       0.37671   0.71164   0.75000 
C          C       0.41696   0.79640   0.75000 
B          B       0.43100   0.86873   0.75000 
C          C       0.45734   0.92326   0.75000 
O          O       0.62034   0.16012   0.75000 
C          C       0.66777   0.24679   0.75000 
C          C       0.66667   0.28896   0.75000 
C          C       0.62532   0.20453   0.75000 
S          S       0.42781   0.95444   0.75000 
C          C       0.48161   0.00358   0.75000 
C          C       0.50611   0.95007   0.75000 
H          H       0.45373   0.75969   0.75000 
H          H       0.69882   0.24378   0.75000 
H          H       0.53040   0.93683   0.75000 
O          O       0.15847   0.61373   0.75000 
C          C       0.24488   0.66390   0.75000 
C          C       0.28836   0.66507   0.75000 
C          C       0.20360   0.62056   0.75000 
B          B       0.13127   0.56227   0.75000 
C          C       0.07674   0.53408   0.75000 
O          O       0.83988   0.46022   0.75000 
C          C       0.75321   0.42098   0.75000 
C          C       0.71104   0.37771   0.75000 
C          C       0.79547   0.42079   0.75000 
S          S       0.04556   0.47337   0.75000 
C          C       0.99642   0.47803   0.75000 
C          C       0.04993   0.55604   0.75000 
H          H       0.24031   0.69404   0.75000 
H          H       0.75622   0.45504   0.75000 
H          H       0.06317   0.59356   0.75000 
O          O       0.61373   0.45526   0.75000 
C          C       0.66390   0.41902   0.75000 
C          C       0.66507   0.37671   0.75000 
C          C       0.62056   0.41696   0.75000 
B          B       0.56227   0.43100   0.75000 
C          C       0.53408   0.45734   0.75000 
O          O       0.46022   0.62034   0.75000 
C          C       0.42098   0.66777   0.75000 
C          C       0.37771   0.66667   0.75000 
C          C       0.42079   0.62532   0.75000 
S          S       0.47337   0.42781   0.75000 
C          C       0.47803   0.48161   0.75000 
C          C       0.55604   0.50611   0.75000 
H          H       0.69404   0.45373   0.75000 
H          H       0.45504   0.69882   0.75000 
H          H       0.59356   0.53040   0.75000 
O          O       0.54474   0.15847   0.75000 
C          C       0.58098   0.24488   0.75000 
C          C       0.62329   0.28836   0.75000 
C          C       0.58304   0.20360   0.75000 
B          B       0.56900   0.13127   0.75000 
C          C       0.54266   0.07674   0.75000 
O          O       0.37966   0.83988   0.75000 
C          C       0.33223   0.75321   0.75000 
C          C       0.33333   0.71104   0.75000 
C          C       0.37468   0.79547   0.75000 
S          S       0.57219   0.04556   0.75000 
C          C       0.51839   0.99642   0.75000 
C          C       0.49389   0.04993   0.75000 
H          H       0.54627   0.24031   0.75000 
H          H       0.30118   0.75622   0.75000 
H          H       0.46960   0.06317   0.75000 
O          O       0.84153   0.38627   0.75000 
C          C       0.75512   0.33610   0.75000 
C          C       0.71164   0.33493   0.75000 
C          C       0.79640   0.37944   0.75000 
B          B       0.86873   0.43773   0.75000 
C          C       0.92326   0.46592   0.75000 
O          O       0.16012   0.53978   0.75000 
C          C       0.24679   0.57902   0.75000 
C          C       0.28896   0.62229   0.75000 
C          C       0.20453   0.57921   0.75000 
S          S       0.95444   0.52663   0.75000 
C          C       0.00358   0.52197   0.75000 
C          C       0.95007   0.44396   0.75000 
H          H       0.75969   0.30596   0.75000 
H          H       0.24378   0.54496   0.75000 
H          H       0.93683   0.40644   0.75000 
