data_crystal
 
_cell_length_a    28.25510
_cell_length_b    3.53000
_cell_length_c    27.93010
_cell_angle_alpha 90.00000
_cell_angle_beta  119.93060
_cell_angle_gamma 90.00000
 
_symmetry_space_group_name_Hall 'P 1'
_symmetry_space_group_name_H-M  'P 1'
 
loop_
_symmetry_equiv_pos_as_xyz
 'x,y,z' 
 
loop_
_atom_site_label
_atom_site_type_symbol
_atom_site_fract_x
_atom_site_fract_y
_atom_site_fract_z
_atom_site_charge
C          C       0.44225   0.50000   0.42480   0.0000000000
C          C       0.49580   0.50000   0.47239   0.0000000000
H          H       0.40727   0.50000   0.42661   0.0000000000
N          N       0.53994   0.50000   0.69170   0.0000000000
C          C       0.43528   0.50000   0.37156   0.0000000000
C          C       0.48081   0.50000   0.05665   0.0000000000
C          C       0.47631   0.50000   0.00328   0.0000000000
H          H       0.51691   0.50000   0.09272   0.0000000000
N          N       0.65272   0.50000   0.96498   0.0000000000
C          C       0.43415   0.50000   0.06204   0.0000000000
C          C       0.07437   0.50000   0.01673   0.0000000000
C          C       0.02727   0.50000   0.02333   0.0000000000
H          H       0.07263   0.50000   0.97956   0.0000000000
N          N       0.81059   0.50000   0.84892   0.0000000000
C          C       0.12697   0.50000   0.06286   0.0000000000
C          C       0.90828   0.50000   0.87436   0.0000000000
C          C       0.96161   0.50000   0.92051   0.0000000000
H          H       0.90149   0.50000   0.83488   0.0000000000
N          N       0.17580   0.50000   0.06673   0.0000000000
C          C       0.86434   0.50000   0.88402   0.0000000000
C          C       0.62533   0.50000   0.03695   0.0000000000
C          C       0.57852   0.50000   0.04284   0.0000000000
H          H       0.66386   0.50000   0.07034   0.0000000000
N          N       0.42953   0.50000   0.10727   0.0000000000
C          C       0.61754   0.50000   0.98352   0.0000000000
C          C       0.46751   0.50000   0.59291   0.0000000000
C          C       0.45983   0.50000   0.53893   0.0000000000
H          H       0.43530   0.50000   0.59985   0.0000000000
N          N       0.39033   0.50000   0.32219   0.0000000000
C          C       0.52094   0.50000   0.63732   0.0000000000
C          C       0.40448   0.50000   0.28232   0.0000000000
C          C       0.63190   0.50000   0.77614   0.0000000000
C          C       0.37548   0.50000   0.09120   0.0000000000
C          C       0.64653   0.50000   0.87245   0.0000000000
C          C       0.21516   0.50000   0.12085   0.0000000000
C          C       0.72704   0.50000   0.85754   0.0000000000
C          C       0.61182   0.50000   0.81391   0.0000000000
C          C       0.70390   0.50000   0.89274   0.0000000000
C          C       0.68976   0.50000   0.79950   0.0000000000
O          O       0.70893   0.50000   0.76753   0.0000000000
O          O       0.56108   0.50000   0.79462   0.0000000000
O          O       0.73546   0.50000   0.94402   0.0000000000
H          H       0.58657   0.50000   0.08259   0.0000000000
H          H       0.99192   0.50000   0.91096   0.0000000000
H          H       0.42013   0.50000   0.50832   0.0000000000
H          H       0.35347   0.50000   0.31606   0.0000000000
H          H       0.18191   0.50000   0.03559   0.0000000000
H          H       0.69207   0.50000   0.98807   0.0000000000
C          C       0.55775   0.50000   0.57520   0.0000000000
C          C       0.50420   0.50000   0.52761   0.0000000000
H          H       0.59273   0.50000   0.57339   0.0000000000
N          N       0.46006   0.50000   0.30830   0.0000000000
C          C       0.56472   0.50000   0.62844   0.0000000000
C          C       0.51919   0.50000   0.94335   0.0000000000
C          C       0.52369   0.50000   0.99672   0.0000000000
H          H       0.48309   0.50000   0.90728   0.0000000000
N          N       0.34728   0.50000   0.03502   0.0000000000
C          C       0.56585   0.50000   0.93796   0.0000000000
C          C       0.92563   0.50000   0.98327   0.0000000000
C          C       0.97273   0.50000   0.97667   0.0000000000
H          H       0.92737   0.50000   0.02044   0.0000000000
N          N       0.18941   0.50000   0.15108   0.0000000000
C          C       0.87303   0.50000   0.93714   0.0000000000
C          C       0.09172   0.50000   0.12564   0.0000000000
C          C       0.03839   0.50000   0.07949   0.0000000000
H          H       0.09851   0.50000   0.16512   0.0000000000
N          N       0.82420   0.50000   0.93327   0.0000000000
C          C       0.13566   0.50000   0.11598   0.0000000000
C          C       0.37467   0.50000   0.96305   0.0000000000
C          C       0.42148   0.50000   0.95716   0.0000000000
H          H       0.33614   0.50000   0.92966   0.0000000000
N          N       0.57047   0.50000   0.89273   0.0000000000
C          C       0.38246   0.50000   0.01648   0.0000000000
C          C       0.53249   0.50000   0.40709   0.0000000000
C          C       0.54017   0.50000   0.46107   0.0000000000
H          H       0.56470   0.50000   0.40015   0.0000000000
N          N       0.60967   0.50000   0.67781   0.0000000000
C          C       0.47906   0.50000   0.36268   0.0000000000
C          C       0.59552   0.50000   0.71768   0.0000000000
C          C       0.36810   0.50000   0.22386   0.0000000000
C          C       0.62452   0.50000   0.90880   0.0000000000
C          C       0.35347   0.50000   0.12755   0.0000000000
C          C       0.78484   0.50000   0.87915   0.0000000000
C          C       0.27296   0.50000   0.14246   0.0000000000
C          C       0.38818   0.50000   0.18609   0.0000000000
C          C       0.29610   0.50000   0.10726   0.0000000000
C          C       0.31024   0.50000   0.20050   0.0000000000
O          O       0.29107   0.50000   0.23247   0.0000000000
O          O       0.43892   0.50000   0.20538   0.0000000000
O          O       0.26454   0.50000   0.05598   0.0000000000
H          H       0.41343   0.50000   0.91741   0.0000000000
H          H       0.00808   0.50000   0.08904   0.0000000000
H          H       0.57987   0.50000   0.49168   0.0000000000
H          H       0.64653   0.50000   0.68394   0.0000000000
H          H       0.81809   0.50000   0.96441   0.0000000000
H          H       0.30793   0.50000   0.01193   0.0000000000
