data_IISERP-COF3
_audit_creation_date              0000-00-00
_audit_creation_method            'LanYouShi'
_symmetry_space_group_name_H-M    'P1'
_cell_length_a                    28.2551003
_cell_length_b                    3.5300000
_cell_length_c                    27.9300995
_cell_angle_alpha                 90.0000000
_cell_angle_beta                  119.9306030
_cell_angle_gamma                 90.0000000
loop_
_atom_site_label
_atom_site_type_symbol
_atom_site_fract_x
_atom_site_fract_y
_atom_site_fract_z
_atom_site_U_iso_or_equiv
_atom_site_adp_type
_atom_site_occupancy
        C1          C  0.4422500  0.5000000  0.4248000    0.00000       Uiso       1.00
        C2          C  0.4958000  0.5000000  0.4723900    0.00000       Uiso       1.00
        H3          H  0.4072700  0.5000000  0.4266100    0.00000       Uiso       1.00
        N4          N  0.5399401  0.5000000  0.6917000    0.00000       Uiso       1.00
        C5          C  0.4352800  0.5000000  0.3715600    0.00000       Uiso       1.00
        C6          C  0.4808100  0.5000000  0.0566500    0.00000       Uiso       1.00
        C7          C  0.4763100  0.5000000  0.0032800    0.00000       Uiso       1.00
        H8          H  0.5169100  0.5000000  0.0927200    0.00000       Uiso       1.00
        N9          N  0.6527200  0.5000000  0.9649801    0.00000       Uiso       1.00
       C10          C  0.4341500  0.5000000  0.0620400    0.00000       Uiso       1.00
       C11          C  0.0743700  0.5000000  0.0167300    0.00000       Uiso       1.00
       C12          C  0.0272700  0.5000000  0.0233300    0.00000       Uiso       1.00
       H13          H  0.0726300  0.5000000  0.9795600    0.00000       Uiso       1.00
       N14          N  0.8105900  0.5000000  0.8489200    0.00000       Uiso       1.00
       C15          C  0.1269700  0.5000000  0.0628600    0.00000       Uiso       1.00
       C16          C  0.9082801  0.5000000  0.8743600    0.00000       Uiso       1.00
       C17          C  0.9616100  0.5000000  0.9205100    0.00000       Uiso       1.00
       H18          H  0.9014900  0.5000000  0.8348801    0.00000       Uiso       1.00
       N19          N  0.1758000  0.5000000  0.0667300    0.00000       Uiso       1.00
       C20          C  0.8643401  0.5000000  0.8840201    0.00000       Uiso       1.00
       C21          C  0.6253300  0.5000000  0.0369500    0.00000       Uiso       1.00
       C22          C  0.5785200  0.5000000  0.0428400    0.00000       Uiso       1.00
       H23          H  0.6638600  0.5000000  0.0703400    0.00000       Uiso       1.00
       N24          N  0.4295300  0.5000000  0.1072700    0.00000       Uiso       1.00
       C25          C  0.6175401  0.5000000  0.9835200    0.00000       Uiso       1.00
       C26          C  0.4675100  0.5000000  0.5929100    0.00000       Uiso       1.00
       C27          C  0.4598300  0.5000000  0.5389301    0.00000       Uiso       1.00
       H28          H  0.4353000  0.5000000  0.5998500    0.00000       Uiso       1.00
       N29          N  0.3903300  0.5000000  0.3221900    0.00000       Uiso       1.00
       C30          C  0.5209400  0.5000000  0.6373200    0.00000       Uiso       1.00
       C31          C  0.4044800  0.5000000  0.2823200    0.00000       Uiso       1.00
       C32          C  0.6319000  0.5000000  0.7761400    0.00000       Uiso       1.00
       C33          C  0.3754800  0.5000000  0.0912000    0.00000       Uiso       1.00
       C34          C  0.6465300  0.5000000  0.8724500    0.00000       Uiso       1.00
       C35          C  0.2151600  0.5000000  0.1208500    0.00000       Uiso       1.00
       C36          C  0.7270401  0.5000000  0.8575400    0.00000       Uiso       1.00
       C37          C  0.6118200  0.5000000  0.8139101    0.00000       Uiso       1.00
       C38          C  0.7039000  0.5000000  0.8927400    0.00000       Uiso       1.00
       C39          C  0.6897601  0.5000000  0.7995000    0.00000       Uiso       1.00
       O40          O  0.7089300  0.5000000  0.7675300    0.00000       Uiso       1.00
       O41          O  0.5610800  0.5000000  0.7946200    0.00000       Uiso       1.00
       O42          O  0.7354600  0.5000000  0.9440200    0.00000       Uiso       1.00
       H43          H  0.5865700  0.5000000  0.0825900    0.00000       Uiso       1.00
       H44          H  0.9919201  0.5000000  0.9109601    0.00000       Uiso       1.00
       H45          H  0.4201300  0.5000000  0.5083200    0.00000       Uiso       1.00
       H46          H  0.3534700  0.5000000  0.3160600    0.00000       Uiso       1.00
       H47          H  0.1819100  0.5000000  0.0355900    0.00000       Uiso       1.00
       H48          H  0.6920701  0.5000000  0.9880701    0.00000       Uiso       1.00
       C49          C  0.5577500  0.5000000  0.5752000    0.00000       Uiso       1.00
       C50          C  0.5042000  0.5000000  0.5276100    0.00000       Uiso       1.00
       H51          H  0.5927300  0.5000000  0.5733900    0.00000       Uiso       1.00
       N52          N  0.4600600  0.5000000  0.3083000    0.00000       Uiso       1.00
       C53          C  0.5647200  0.5000000  0.6284400    0.00000       Uiso       1.00
       C54          C  0.5191901  0.5000000  0.9433501    0.00000       Uiso       1.00
       C55          C  0.5236900  0.5000000  0.9967200    0.00000       Uiso       1.00
       H56          H  0.4830900  0.5000000  0.9072800    0.00000       Uiso       1.00
       N57          N  0.3472800  0.5000000  0.0350200    0.00000       Uiso       1.00
       C58          C  0.5658500  0.5000000  0.9379600    0.00000       Uiso       1.00
       C59          C  0.9256301  0.5000000  0.9832700    0.00000       Uiso       1.00
       C60          C  0.9727300  0.5000000  0.9766700    0.00000       Uiso       1.00
       H61          H  0.9273700  0.5000000  0.0204400    0.00000       Uiso       1.00
       N62          N  0.1894100  0.5000000  0.1510800    0.00000       Uiso       1.00
       C63          C  0.8730301  0.5000000  0.9371400    0.00000       Uiso       1.00
       C64          C  0.0917200  0.5000000  0.1256400    0.00000       Uiso       1.00
       C65          C  0.0383900  0.5000000  0.0794900    0.00000       Uiso       1.00
       H66          H  0.0985100  0.5000000  0.1651200    0.00000       Uiso       1.00
       N67          N  0.8242000  0.5000000  0.9332700    0.00000       Uiso       1.00
       C68          C  0.1356600  0.5000000  0.1159800    0.00000       Uiso       1.00
       C69          C  0.3746700  0.5000000  0.9630500    0.00000       Uiso       1.00
       C70          C  0.4214801  0.5000000  0.9571601    0.00000       Uiso       1.00
       H71          H  0.3361401  0.5000000  0.9296601    0.00000       Uiso       1.00
       N72          N  0.5704700  0.5000000  0.8927300    0.00000       Uiso       1.00
       C73          C  0.3824600  0.5000000  0.0164800    0.00000       Uiso       1.00
       C74          C  0.5324900  0.5000000  0.4070900    0.00000       Uiso       1.00
       C75          C  0.5401700  0.5000000  0.4610700    0.00000       Uiso       1.00
       H76          H  0.5647000  0.5000000  0.4001500    0.00000       Uiso       1.00
       N77          N  0.6096700  0.5000000  0.6778100    0.00000       Uiso       1.00
       C78          C  0.4790600  0.5000000  0.3626800    0.00000       Uiso       1.00
       C79          C  0.5955201  0.5000000  0.7176801    0.00000       Uiso       1.00
       C80          C  0.3681000  0.5000000  0.2238600    0.00000       Uiso       1.00
       C81          C  0.6245200  0.5000000  0.9088000    0.00000       Uiso       1.00
       C82          C  0.3534700  0.5000000  0.1275500    0.00000       Uiso       1.00
       C83          C  0.7848400  0.5000000  0.8791500    0.00000       Uiso       1.00
       C84          C  0.2729600  0.5000000  0.1424600    0.00000       Uiso       1.00
       C85          C  0.3881800  0.5000000  0.1860900    0.00000       Uiso       1.00
       C86          C  0.2961000  0.5000000  0.1072600    0.00000       Uiso       1.00
       C87          C  0.3102400  0.5000000  0.2005000    0.00000       Uiso       1.00
       O88          O  0.2910700  0.5000000  0.2324700    0.00000       Uiso       1.00
       O89          O  0.4389200  0.5000000  0.2053800    0.00000       Uiso       1.00
       O90          O  0.2645400  0.5000000  0.0559800    0.00000       Uiso       1.00
       H91          H  0.4134301  0.5000000  0.9174100    0.00000       Uiso       1.00
       H92          H  0.0080800  0.5000000  0.0890400    0.00000       Uiso       1.00
       H93          H  0.5798700  0.5000000  0.4916800    0.00000       Uiso       1.00
       H94          H  0.6465300  0.5000000  0.6839400    0.00000       Uiso       1.00
       H95          H  0.8180901  0.5000000  0.9644100    0.00000       Uiso       1.00
       H96          H  0.3079300  0.5000000  0.0119300    0.00000       Uiso       1.00
