data_crystal

_cell_length_a    34.77560
_cell_length_b    34.16440
_cell_length_c    13.15740
_cell_angle_alpha 90.00000
_cell_angle_beta  90.00000
_cell_angle_gamma 90.00000

_space_group_name_Hall 'P 1'
_space_group_name_H-M_alt  'P 1'

loop_
_symmetry_equiv_pos_as_xyz
'x,y,z' 

loop_
_atom_site_label
_atom_site_type_symbol
_atom_site_fract_x
_atom_site_fract_y
_atom_site_fract_z
C          C       0.46470   0.95740   0.49310 
C          C       0.43020   0.02150   0.49135 
C          C       0.46500   0.08400   0.49395 
C          C       0.42930   0.10730   0.50200 
C          C       0.40850   0.10760   0.59325 
C          C       0.37540   0.13040   0.60240 
C          C       0.36250   0.15330   0.52045 
C          C       0.38340   0.15290   0.42885 
C          C       0.41670   0.13020   0.41995 
C          C       0.32770   0.17750   0.53285 
C          C       0.78190   0.27550   0.46290 
C          C       0.76590   0.26250   0.37150 
C          C       0.73410   0.23750   0.55505 
H          H       0.40260   0.03610   0.48900 
H          H       0.41810   0.09040   0.65755 
H          H       0.35980   0.13040   0.67375 
H          H       0.37430   0.17020   0.36445 
H          H       0.43270   0.13030   0.34920 
H          H       0.31270   0.17630   0.60485 
H          H       0.77810   0.27210   0.30025 
H          H       0.72200   0.22900   0.62705 
N          N       0.31490   0.19910   0.45880 
C          C       0.96470   0.45740   0.49310 
C          C       0.93020   0.52150   0.49135 
C          C       0.96500   0.58400   0.49395 
C          C       0.92930   0.60730   0.50200 
C          C       0.90850   0.60760   0.59325 
C          C       0.87540   0.63040   0.60240 
C          C       0.86250   0.65330   0.52045 
C          C       0.88340   0.65290   0.42885 
C          C       0.91670   0.63020   0.41995 
C          C       0.82770   0.67750   0.53285 
C          C       0.28190   0.77550   0.46290 
C          C       0.26590   0.76250   0.37150 
C          C       0.23410   0.73750   0.55505 
H          H       0.90260   0.53610   0.48900 
H          H       0.91810   0.59040   0.65755 
H          H       0.85980   0.63040   0.67375 
H          H       0.87430   0.67020   0.36445 
H          H       0.93270   0.63030   0.34920 
H          H       0.81270   0.67630   0.60485 
H          H       0.27810   0.77210   0.30025 
H          H       0.22200   0.72900   0.62705 
N          N       0.81490   0.69910   0.45880 
C          C       0.53530   0.04260   0.49310 
C          C       0.56980   0.97850   0.49135 
C          C       0.53500   0.91600   0.49395 
C          C       0.57070   0.89270   0.50200 
C          C       0.59150   0.89240   0.59325 
C          C       0.62460   0.86960   0.60240 
C          C       0.63750   0.84670   0.52045 
C          C       0.61660   0.84710   0.42885 
C          C       0.58330   0.86980   0.41995 
C          C       0.67230   0.82250   0.53285 
C          C       0.21810   0.72450   0.46290 
C          C       0.23410   0.73750   0.37150 
C          C       0.26590   0.76250   0.55505 
H          H       0.59740   0.96390   0.48900 
H          H       0.58190   0.90960   0.65755 
H          H       0.64020   0.86960   0.67375 
H          H       0.62570   0.82980   0.36445 
H          H       0.56730   0.86970   0.34920 
H          H       0.68730   0.82370   0.60485 
H          H       0.22190   0.72790   0.30025 
H          H       0.27800   0.77100   0.62705 
N          N       0.68510   0.80090   0.45880 
C          C       0.03530   0.54260   0.49310 
C          C       0.06980   0.47850   0.49135 
C          C       0.03500   0.41600   0.49395 
C          C       0.07070   0.39270   0.50200 
C          C       0.09150   0.39240   0.59325 
C          C       0.12460   0.36960   0.60240 
C          C       0.13750   0.34670   0.52045 
C          C       0.11660   0.34710   0.42885 
C          C       0.08330   0.36980   0.41995 
C          C       0.17230   0.32250   0.53285 
C          C       0.71810   0.22450   0.46290 
C          C       0.73410   0.23750   0.37150 
C          C       0.76590   0.26250   0.55505 
H          H       0.09740   0.46390   0.48900 
H          H       0.08190   0.40960   0.65755 
H          H       0.14020   0.36960   0.67375 
H          H       0.12570   0.32980   0.36445 
H          H       0.06730   0.36970   0.34920 
H          H       0.18730   0.32370   0.60485 
H          H       0.72190   0.22790   0.30025 
H          H       0.77800   0.27100   0.62705 
N          N       0.18510   0.30090   0.45880 
C          C       0.46470   0.04260   0.49310 
C          C       0.43020   0.97850   0.49135 
C          C       0.46500   0.91600   0.49395 
C          C       0.42930   0.89270   0.50200 
C          C       0.40850   0.89240   0.59325 
C          C       0.37540   0.86960   0.60240 
C          C       0.36250   0.84670   0.52045 
C          C       0.38340   0.84710   0.42885 
C          C       0.41670   0.86980   0.41995 
C          C       0.32770   0.82250   0.53285 
C          C       0.78190   0.72450   0.46290 
C          C       0.76590   0.73750   0.37150 
C          C       0.73410   0.76250   0.55505 
H          H       0.40260   0.96390   0.48900 
H          H       0.41810   0.90960   0.65755 
H          H       0.35980   0.86960   0.67375 
H          H       0.37430   0.82980   0.36445 
H          H       0.43270   0.86970   0.34920 
H          H       0.31270   0.82370   0.60485 
H          H       0.77810   0.72790   0.30025 
H          H       0.72200   0.77100   0.62705 
N          N       0.31490   0.80090   0.45880 
C          C       0.96470   0.54260   0.49310 
C          C       0.93020   0.47850   0.49135 
C          C       0.96500   0.41600   0.49395 
C          C       0.92930   0.39270   0.50200 
C          C       0.90850   0.39240   0.59325 
C          C       0.87540   0.36960   0.60240 
C          C       0.86250   0.34670   0.52045 
C          C       0.88340   0.34710   0.42885 
C          C       0.91670   0.36980   0.41995 
C          C       0.82770   0.32250   0.53285 
C          C       0.28190   0.22450   0.46290 
C          C       0.26590   0.23750   0.37150 
C          C       0.23410   0.26250   0.55505 
H          H       0.90260   0.46390   0.48900 
H          H       0.91810   0.40960   0.65755 
H          H       0.85980   0.36960   0.67375 
H          H       0.87430   0.32980   0.36445 
H          H       0.93270   0.36970   0.34920 
H          H       0.81270   0.32370   0.60485 
H          H       0.27810   0.22790   0.30025 
H          H       0.22200   0.27100   0.62705 
N          N       0.81490   0.30090   0.45880 
C          C       0.53530   0.95740   0.49310 
C          C       0.56980   0.02150   0.49135 
C          C       0.53500   0.08400   0.49395 
C          C       0.57070   0.10730   0.50200 
C          C       0.59150   0.10760   0.59325 
C          C       0.62460   0.13040   0.60240 
C          C       0.63750   0.15330   0.52045 
C          C       0.61660   0.15290   0.42885 
C          C       0.58330   0.13020   0.41995 
C          C       0.67230   0.17750   0.53285 
C          C       0.21810   0.27550   0.46290 
C          C       0.23410   0.26250   0.37150 
C          C       0.26590   0.23750   0.55505 
H          H       0.59740   0.03610   0.48900 
H          H       0.58190   0.09040   0.65755 
H          H       0.64020   0.13040   0.67375 
H          H       0.62570   0.17020   0.36445 
H          H       0.56730   0.13030   0.34920 
H          H       0.68730   0.17630   0.60485 
H          H       0.22190   0.27210   0.30025 
H          H       0.27800   0.22900   0.62705 
N          N       0.68510   0.19910   0.45880 
C          C       0.03530   0.45740   0.49310 
C          C       0.06980   0.52150   0.49135 
C          C       0.03500   0.58400   0.49395 
C          C       0.07070   0.60730   0.50200 
C          C       0.09150   0.60760   0.59325 
C          C       0.12460   0.63040   0.60240 
C          C       0.13750   0.65330   0.52045 
C          C       0.11660   0.65290   0.42885 
C          C       0.08330   0.63020   0.41995 
C          C       0.17230   0.67750   0.53285 
C          C       0.71810   0.77550   0.46290 
C          C       0.73410   0.76250   0.37150 
C          C       0.76590   0.73750   0.55505 
H          H       0.09740   0.53610   0.48900 
H          H       0.08190   0.59040   0.65755 
H          H       0.14020   0.63040   0.67375 
H          H       0.12570   0.67020   0.36445 
H          H       0.06730   0.63030   0.34920 
H          H       0.18730   0.67630   0.60485 
H          H       0.72190   0.77210   0.30025 
H          H       0.77800   0.72900   0.62705 
N          N       0.18510   0.69910   0.45880 
C          C       0.50000   0.10410   0.49290 
C          C       0.50000   0.97810   0.49270 
H          H       0.50000   0.13590   0.49515 
C          C      -0.00000   0.60410   0.49290 
C          C      -0.00000   0.47810   0.49270 
H          H      -0.00000   0.63590   0.49515 
C          C       0.50000   0.89590   0.49290 
C          C       0.50000   0.02190   0.49270 
H          H       0.50000   0.86410   0.49515 
C          C      -0.00000   0.39590   0.49290 
C          C      -0.00000   0.52190   0.49270 
H          H      -0.00000   0.36410   0.49515 
C          C       0.46470   0.95740   0.99310 
C          C       0.43020   0.02150   0.99135 
C          C       0.46500   0.08400   0.99395 
C          C       0.42930   0.10730   1.00200 
C          C       0.40850   0.10760   1.09325 
C          C       0.37540   0.13040   1.10240 
C          C       0.36250   0.15330   1.02045 
C          C       0.38340   0.15290   0.92885 
C          C       0.41670   0.13020   0.91995 
C          C       0.32770   0.17750   1.03285 
C          C       0.78190   0.27550   0.96290 
C          C       0.76590   0.26250   0.87150 
C          C       0.73410   0.23750   1.05505 
H          H       0.40260   0.03610   0.98900 
H          H       0.41810   0.09040   1.15755 
H          H       0.35980   0.13040   1.17375 
H          H       0.37430   0.17020   0.86445 
H          H       0.43270   0.13030   0.84920 
H          H       0.31270   0.17630   1.10485 
H          H       0.77810   0.27210   0.80025 
H          H       0.72200   0.22900   1.12705 
N          N       0.31490   0.19910   0.95880 
C          C       0.96470   0.45740   0.99310 
C          C       0.93020   0.52150   0.99135 
C          C       0.96500   0.58400   0.99395 
C          C       0.92930   0.60730   1.00200 
C          C       0.90850   0.60760   1.09325 
C          C       0.87540   0.63040   1.10240 
C          C       0.86250   0.65330   1.02045 
C          C       0.88340   0.65290   0.92885 
C          C       0.91670   0.63020   0.91995 
C          C       0.82770   0.67750   1.03285 
C          C       0.28190   0.77550   0.96290 
C          C       0.26590   0.76250   0.87150 
C          C       0.23410   0.73750   1.05505 
H          H       0.90260   0.53610   0.98900 
H          H       0.91810   0.59040   1.15755 
H          H       0.85980   0.63040   1.17375 
H          H       0.87430   0.67020   0.86445 
H          H       0.93270   0.63030   0.84920 
H          H       0.81270   0.67630   1.10485 
H          H       0.27810   0.77210   0.80025 
H          H       0.22200   0.72900   1.12705 
N          N       0.81490   0.69910   0.95880 
C          C       0.53530   0.04260   0.99310 
C          C       0.56980   0.97850   0.99135 
C          C       0.53500   0.91600   0.99395 
C          C       0.57070   0.89270   1.00200 
C          C       0.59150   0.89240   1.09325 
C          C       0.62460   0.86960   1.10240 
C          C       0.63750   0.84670   1.02045 
C          C       0.61660   0.84710   0.92885 
C          C       0.58330   0.86980   0.91995 
C          C       0.67230   0.82250   1.03285 
C          C       0.21810   0.72450   0.96290 
C          C       0.23410   0.73750   0.87150 
C          C       0.26590   0.76250   1.05505 
H          H       0.59740   0.96390   0.98900 
H          H       0.58190   0.90960   1.15755 
H          H       0.64020   0.86960   1.17375 
H          H       0.62570   0.82980   0.86445 
H          H       0.56730   0.86970   0.84920 
H          H       0.68730   0.82370   1.10485 
H          H       0.22190   0.72790   0.80025 
H          H       0.27800   0.77100   1.12705 
N          N       0.68510   0.80090   0.95880 
C          C       0.03530   0.54260   0.99310 
C          C       0.06980   0.47850   0.99135 
C          C       0.03500   0.41600   0.99395 
C          C       0.07070   0.39270   1.00200 
C          C       0.09150   0.39240   1.09325 
C          C       0.12460   0.36960   1.10240 
C          C       0.13750   0.34670   1.02045 
C          C       0.11660   0.34710   0.92885 
C          C       0.08330   0.36980   0.91995 
C          C       0.17230   0.32250   1.03285 
C          C       0.71810   0.22450   0.96290 
C          C       0.73410   0.23750   0.87150 
C          C       0.76590   0.26250   1.05505 
H          H       0.09740   0.46390   0.98900 
H          H       0.08190   0.40960   1.15755 
H          H       0.14020   0.36960   1.17375 
H          H       0.12570   0.32980   0.86445 
H          H       0.06730   0.36970   0.84920 
H          H       0.18730   0.32370   1.10485 
H          H       0.72190   0.22790   0.80025 
H          H       0.77800   0.27100   1.12705 
N          N       0.18510   0.30090   0.95880 
C          C       0.46470   0.04260   0.99310 
C          C       0.43020   0.97850   0.99135 
C          C       0.46500   0.91600   0.99395 
C          C       0.42930   0.89270   1.00200 
C          C       0.40850   0.89240   1.09325 
C          C       0.37540   0.86960   1.10240 
C          C       0.36250   0.84670   1.02045 
C          C       0.38340   0.84710   0.92885 
C          C       0.41670   0.86980   0.91995 
C          C       0.32770   0.82250   1.03285 
C          C       0.78190   0.72450   0.96290 
C          C       0.76590   0.73750   0.87150 
C          C       0.73410   0.76250   1.05505 
H          H       0.40260   0.96390   0.98900 
H          H       0.41810   0.90960   1.15755 
H          H       0.35980   0.86960   1.17375 
H          H       0.37430   0.82980   0.86445 
H          H       0.43270   0.86970   0.84920 
H          H       0.31270   0.82370   1.10485 
H          H       0.77810   0.72790   0.80025 
H          H       0.72200   0.77100   1.12705 
N          N       0.31490   0.80090   0.95880 
C          C       0.96470   0.54260   0.99310 
C          C       0.93020   0.47850   0.99135 
C          C       0.96500   0.41600   0.99395 
C          C       0.92930   0.39270   1.00200 
C          C       0.90850   0.39240   1.09325 
C          C       0.87540   0.36960   1.10240 
C          C       0.86250   0.34670   1.02045 
C          C       0.88340   0.34710   0.92885 
C          C       0.91670   0.36980   0.91995 
C          C       0.82770   0.32250   1.03285 
C          C       0.28190   0.22450   0.96290 
C          C       0.26590   0.23750   0.87150 
C          C       0.23410   0.26250   1.05505 
H          H       0.90260   0.46390   0.98900 
H          H       0.91810   0.40960   1.15755 
H          H       0.85980   0.36960   1.17375 
H          H       0.87430   0.32980   0.86445 
H          H       0.93270   0.36970   0.84920 
H          H       0.81270   0.32370   1.10485 
H          H       0.27810   0.22790   0.80025 
H          H       0.22200   0.27100   1.12705 
N          N       0.81490   0.30090   0.95880 
C          C       0.53530   0.95740   0.99310 
C          C       0.56980   0.02150   0.99135 
C          C       0.53500   0.08400   0.99395 
C          C       0.57070   0.10730   1.00200 
C          C       0.59150   0.10760   1.09325 
C          C       0.62460   0.13040   1.10240 
C          C       0.63750   0.15330   1.02045 
C          C       0.61660   0.15290   0.92885 
C          C       0.58330   0.13020   0.91995 
C          C       0.67230   0.17750   1.03285 
C          C       0.21810   0.27550   0.96290 
C          C       0.23410   0.26250   0.87150 
C          C       0.26590   0.23750   1.05505 
H          H       0.59740   0.03610   0.98900 
H          H       0.58190   0.09040   1.15755 
H          H       0.64020   0.13040   1.17375 
H          H       0.62570   0.17020   0.86445 
H          H       0.56730   0.13030   0.84920 
H          H       0.68730   0.17630   1.10485 
H          H       0.22190   0.27210   0.80025 
H          H       0.27800   0.22900   1.12705 
N          N       0.68510   0.19910   0.95880 
C          C       0.03530   0.45740   0.99310 
C          C       0.06980   0.52150   0.99135 
C          C       0.03500   0.58400   0.99395 
C          C       0.07070   0.60730   1.00200 
C          C       0.09150   0.60760   1.09325 
C          C       0.12460   0.63040   1.10240 
C          C       0.13750   0.65330   1.02045 
C          C       0.11660   0.65290   0.92885 
C          C       0.08330   0.63020   0.91995 
C          C       0.17230   0.67750   1.03285 
C          C       0.71810   0.77550   0.96290 
C          C       0.73410   0.76250   0.87150 
C          C       0.76590   0.73750   1.05505 
H          H       0.09740   0.53610   0.98900 
H          H       0.08190   0.59040   1.15755 
H          H       0.14020   0.63040   1.17375 
H          H       0.12570   0.67020   0.86445 
H          H       0.06730   0.63030   0.84920 
H          H       0.18730   0.67630   1.10485 
H          H       0.72190   0.77210   0.80025 
H          H       0.77800   0.72900   1.12705 
N          N       0.18510   0.69910   0.95880 
C          C       0.50000   0.10410   0.99290 
C          C       0.50000   0.97810   0.99270 
H          H       0.50000   0.13590   0.99515 
C          C      -0.00000   0.60410   0.99290 
C          C       0.00000   0.47810   0.99270 
H          H      -0.00000   0.63590   0.99515 
C          C       0.50000   0.89590   0.99290 
C          C       0.50000   0.02190   0.99270 
H          H       0.50000   0.86410   0.99515 
C          C      -0.00000   0.39590   0.99290 
C          C      -0.00000   0.52190   0.99270 
H          H      -0.00000   0.36410   0.99515 
