data_crystal

_cell_length_a    23.32930
_cell_length_b    34.95710
_cell_length_c    13.52760
_cell_angle_alpha 90.00000
_cell_angle_beta  90.00000
_cell_angle_gamma 90.00000

_space_group_name_Hall 'P 1'
_space_group_name_H-M_alt  'P 1'

loop_
_symmetry_equiv_pos_as_xyz
'x,y,z' 

loop_
_atom_site_label
_atom_site_type_symbol
_atom_site_fract_x
_atom_site_fract_y
_atom_site_fract_z
N          N       0.22686   0.68499   0.25000 
N          N       0.72686   0.18499   0.25000 
N          N       0.77314   0.31501   0.25000 
N          N       0.27314   0.81501   0.25000 
N          N       0.77314   0.68499   0.25000 
N          N       0.27314   0.18499   0.25000 
N          N       0.22686   0.31501   0.25000 
N          N       0.72686   0.81501   0.25000 
C          C       0.24065   0.72246   0.25000 
C          C       0.74065   0.22246   0.25000 
C          C       0.75935   0.27754   0.25000 
C          C       0.25935   0.77754   0.25000 
C          C       0.75935   0.72246   0.25000 
C          C       0.25935   0.22246   0.25000 
C          C       0.24065   0.27754   0.25000 
C          C       0.74065   0.77754   0.25000 
C          C       0.20891   0.75614   0.25000 
C          C       0.70891   0.25614   0.25000 
C          C       0.79109   0.24386   0.25000 
C          C       0.29109   0.74387   0.25000 
C          C       0.79109   0.75614   0.25000 
C          C       0.29109   0.25614   0.25000 
C          C       0.20891   0.24386   0.25000 
C          C       0.70891   0.74387   0.25000 
H          H       0.18674   0.67771   0.25000 
H          H       0.68674   0.17771   0.25000 
H          H       0.81326   0.32230   0.25000 
H          H       0.31326   0.82230   0.25000 
H          H       0.81326   0.67771   0.25000 
H          H       0.31326   0.17771   0.25000 
H          H       0.18674   0.32230   0.25000 
H          H       0.68674   0.82230   0.25000 
C          C       0.95193   0.91733   0.25000 
C          C       0.45193   0.41733   0.25000 
C          C       0.04807   0.08267   0.25000 
C          C       0.54807   0.58267   0.25000 
C          C       0.04807   0.91733   0.25000 
C          C       0.54807   0.41733   0.25000 
C          C       0.95193   0.08267   0.25000 
C          C       0.45193   0.58267   0.25000 
C          C       0.97046   0.87936   0.25000 
C          C       0.47046   0.37936   0.25000 
C          C       0.02953   0.12064   0.25000 
C          C       0.52953   0.62064   0.25000 
C          C       0.02953   0.87936   0.25000 
C          C       0.52953   0.37936   0.25000 
C          C       0.97046   0.12064   0.25000 
C          C       0.47046   0.62064   0.25000 
H          H       0.94532   0.85543   0.25000 
H          H       0.44532   0.35543   0.25000 
H          H       0.05468   0.14457   0.25000 
H          H       0.55468   0.64457   0.25000 
H          H       0.05468   0.85543   0.25000 
H          H       0.55468   0.35543   0.25000 
H          H       0.94532   0.14457   0.25000 
H          H       0.44532   0.64457   0.25000 
N          N       0.40974   0.50000   0.25000 
N          N       0.90973   0.00000   0.25000 
N          N       0.59026   0.50000   0.25000 
N          N       0.09026   0.00000   0.25000 
C          C       0.37657   0.46814   0.25000 
C          C       0.87657   0.96814   0.25000 
C          C       0.62343   0.53186   0.25000 
C          C       0.12343   0.03186   0.25000 
C          C       0.62343   0.46814   0.25000 
C          C       0.12343   0.96814   0.25000 
C          C       0.37657   0.53186   0.25000 
C          C       0.87657   0.03186   0.25000 
C          C       0.31960   0.48033   0.25000 
C          C       0.81960   0.98033   0.25000 
C          C       0.68039   0.51967   0.25000 
C          C       0.18039   0.01967   0.25000 
C          C       0.68039   0.48033   0.25000 
C          C       0.18039   0.98033   0.25000 
C          C       0.31960   0.51967   0.25000 
C          C       0.81960   0.01967   0.25000 
H          H       0.28376   0.46351   0.25000 
H          H       0.78376   0.96351   0.25000 
H          H       0.71623   0.53649   0.25000 
H          H       0.21623   0.03649   0.25000 
H          H       0.71623   0.46351   0.25000 
H          H       0.21623   0.96351   0.25000 
H          H       0.28376   0.53649   0.25000 
H          H       0.78376   0.03649   0.25000 
C          C       0.89409   0.92939   0.25000 
C          C       0.39409   0.42939   0.25000 
C          C       0.10591   0.07061   0.25000 
C          C       0.60591   0.57061   0.25000 
C          C       0.10591   0.92939   0.25000 
C          C       0.60591   0.42939   0.25000 
C          C       0.89409   0.07061   0.25000 
C          C       0.39409   0.57061   0.25000 
C          C       0.85128   0.90080   0.25000 
C          C       0.35128   0.40080   0.25000 
C          C       0.14872   0.09920   0.25000 
C          C       0.64871   0.59920   0.25000 
C          C       0.14872   0.90080   0.25000 
C          C       0.64871   0.40080   0.25000 
C          C       0.85128   0.09920   0.25000 
C          C       0.35128   0.59920   0.25000 
C          C       0.32978   0.38628   0.34014 
C          C       0.82978   0.88628   0.34014 
C          C       0.67022   0.61373   0.34014 
C          C       0.17022   0.11373   0.34014 
C          C       0.67022   0.38628   0.15985 
C          C       0.17022   0.88628   0.15985 
C          C       0.32978   0.61373   0.15985 
C          C       0.82978   0.11373   0.15985 
C          C       0.67022   0.61373   0.15985 
C          C       0.17022   0.11373   0.15985 
C          C       0.32978   0.38628   0.15985 
C          C       0.82978   0.88628   0.15985 
C          C       0.32978   0.61373   0.34014 
C          C       0.82978   0.11373   0.34014 
C          C       0.67022   0.38628   0.34014 
C          C       0.17022   0.88628   0.34014 
H          H       0.84478   0.89656   0.40606 
H          H       0.34478   0.39656   0.40606 
H          H       0.15522   0.10344   0.40606 
H          H       0.65522   0.60345   0.40606 
H          H       0.15522   0.89656   0.09394 
H          H       0.65522   0.39656   0.09394 
H          H       0.84478   0.10344   0.09394 
H          H       0.34478   0.60345   0.09394 
H          H       0.15522   0.10344   0.09394 
H          H       0.65522   0.60345   0.09394 
H          H       0.84478   0.89656   0.09394 
H          H       0.34478   0.39656   0.09394 
H          H       0.84478   0.10344   0.40606 
H          H       0.34478   0.60345   0.40606 
H          H       0.15522   0.89656   0.40606 
H          H       0.65522   0.39656   0.40606 
C          C       0.78763   0.85745   0.33999 
C          C       0.28763   0.35745   0.33999 
C          C       0.21237   0.14255   0.33999 
C          C       0.71237   0.64255   0.33999 
C          C       0.21237   0.85745   0.16001 
C          C       0.71237   0.35745   0.16001 
C          C       0.78763   0.14255   0.16001 
C          C       0.28763   0.64255   0.16001 
C          C       0.21237   0.14255   0.16001 
C          C       0.71237   0.64255   0.16001 
C          C       0.78763   0.85745   0.16001 
C          C       0.28763   0.35745   0.16001 
C          C       0.78763   0.14255   0.33999 
C          C       0.28763   0.64255   0.33999 
C          C       0.21237   0.85745   0.33999 
C          C       0.71237   0.35745   0.33999 
H          H       0.77229   0.84698   0.40535 
H          H       0.27229   0.34698   0.40535 
H          H       0.22771   0.15302   0.40535 
H          H       0.72771   0.65302   0.40535 
H          H       0.22771   0.84698   0.09465 
H          H       0.72771   0.34698   0.09465 
H          H       0.77229   0.15302   0.09465 
H          H       0.27229   0.65302   0.09465 
H          H       0.22771   0.15302   0.09465 
H          H       0.72771   0.65302   0.09465 
H          H       0.77229   0.84698   0.09465 
H          H       0.27229   0.34698   0.09465 
H          H       0.77229   0.15302   0.40535 
H          H       0.27229   0.65302   0.40535 
H          H       0.22771   0.84698   0.40535 
H          H       0.72771   0.34698   0.40535 
C          C       0.76673   0.84284   0.25000 
C          C       0.26673   0.34284   0.25000 
C          C       0.23326   0.15716   0.25000 
C          C       0.73326   0.65716   0.25000 
C          C       0.23326   0.84284   0.25000 
C          C       0.73326   0.34284   0.25000 
C          C       0.76673   0.15716   0.25000 
C          C       0.26673   0.65716   0.25000 
O          O       0.15658   0.76396   0.25000 
O          O       0.65657   0.26396   0.25000 
O          O       0.84342   0.23605   0.25000 
O          O       0.34342   0.73605   0.25000 
O          O       0.84342   0.76396   0.25000 
O          O       0.34342   0.26396   0.25000 
O          O       0.15658   0.23605   0.25000 
O          O       0.65657   0.73605   0.25000 
N          N       0.00000   0.93886   0.25000 
N          N       0.50000   0.43886   0.25000 
N          N       0.00000   0.06114   0.25000 
N          N       0.50000   0.56114   0.25000 
Cu         Cu      0.00372  -0.00054   0.26211 
Cu         Cu      0.50000   0.50000   0.25000 
N          N       0.22686   0.68499   0.75000 
N          N       0.72686   0.18499   0.75000 
N          N       0.77314   0.31501   0.75000 
N          N       0.27314   0.81501   0.75000 
N          N       0.77314   0.68499   0.75000 
N          N       0.27314   0.18499   0.75000 
N          N       0.22686   0.31501   0.75000 
N          N       0.72686   0.81501   0.75000 
C          C       0.24065   0.72246   0.75000 
C          C       0.74065   0.22246   0.75000 
C          C       0.75935   0.27754   0.75000 
C          C       0.25935   0.77754   0.75000 
C          C       0.75935   0.72246   0.75000 
C          C       0.25935   0.22246   0.75000 
C          C       0.24065   0.27754   0.75000 
C          C       0.74065   0.77754   0.75000 
C          C       0.20891   0.75614   0.75000 
C          C       0.70891   0.25614   0.75000 
C          C       0.79109   0.24386   0.75000 
C          C       0.29109   0.74387   0.75000 
C          C       0.79109   0.75614   0.75000 
C          C       0.29109   0.25614   0.75000 
C          C       0.20891   0.24386   0.75000 
C          C       0.70891   0.74387   0.75000 
H          H       0.18674   0.67771   0.75000 
H          H       0.68674   0.17771   0.75000 
H          H       0.81326   0.32230   0.75000 
H          H       0.31326   0.82230   0.75000 
H          H       0.81326   0.67771   0.75000 
H          H       0.31326   0.17771   0.75000 
H          H       0.18674   0.32230   0.75000 
H          H       0.68674   0.82230   0.75000 
C          C       0.95193   0.91733   0.75000 
C          C       0.45193   0.41733   0.75000 
C          C       0.04807   0.08267   0.75000 
C          C       0.54807   0.58267   0.75000 
C          C       0.04807   0.91733   0.75000 
C          C       0.54807   0.41733   0.75000 
C          C       0.95193   0.08267   0.75000 
C          C       0.45193   0.58267   0.75000 
C          C       0.97046   0.87936   0.75000 
C          C       0.47046   0.37936   0.75000 
C          C       0.02953   0.12064   0.75000 
C          C       0.52953   0.62064   0.75000 
C          C       0.02953   0.87936   0.75000 
C          C       0.52953   0.37936   0.75000 
C          C       0.97046   0.12064   0.75000 
C          C       0.47046   0.62064   0.75000 
H          H       0.94532   0.85543   0.75000 
H          H       0.44532   0.35543   0.75000 
H          H       0.05468   0.14457   0.75000 
H          H       0.55468   0.64457   0.75000 
H          H       0.05468   0.85543   0.75000 
H          H       0.55468   0.35543   0.75000 
H          H       0.94532   0.14457   0.75000 
H          H       0.44532   0.64457   0.75000 
N          N       0.40974   0.50000   0.75000 
N          N       0.90973   0.00000   0.75000 
N          N       0.59026   0.50000   0.75000 
N          N       0.09026   0.00000   0.75000 
C          C       0.37657   0.46814   0.75000 
C          C       0.87657   0.96814   0.75000 
C          C       0.62343   0.53186   0.75000 
C          C       0.12343   0.03186   0.75000 
C          C       0.62343   0.46814   0.75000 
C          C       0.12343   0.96814   0.75000 
C          C       0.37657   0.53186   0.75000 
C          C       0.87657   0.03186   0.75000 
C          C       0.31960   0.48033   0.75000 
C          C       0.81960   0.98033   0.75000 
C          C       0.68039   0.51967   0.75000 
C          C       0.18039   0.01967   0.75000 
C          C       0.68039   0.48033   0.75000 
C          C       0.18039   0.98033   0.75000 
C          C       0.31960   0.51967   0.75000 
C          C       0.81960   0.01967   0.75000 
H          H       0.28376   0.46351   0.75000 
H          H       0.78376   0.96351   0.75000 
H          H       0.71623   0.53649   0.75000 
H          H       0.21623   0.03649   0.75000 
H          H       0.71623   0.46351   0.75000 
H          H       0.21623   0.96351   0.75000 
H          H       0.28376   0.53649   0.75000 
H          H       0.78376   0.03649   0.75000 
C          C       0.89409   0.92939   0.75000 
C          C       0.39409   0.42939   0.75000 
C          C       0.10591   0.07061   0.75000 
C          C       0.60591   0.57061   0.75000 
C          C       0.10591   0.92939   0.75000 
C          C       0.60591   0.42939   0.75000 
C          C       0.89409   0.07061   0.75000 
C          C       0.39409   0.57061   0.75000 
C          C       0.85128   0.90080   0.75000 
C          C       0.35128   0.40080   0.75000 
C          C       0.14872   0.09920   0.75000 
C          C       0.64871   0.59920   0.75000 
C          C       0.14872   0.90080   0.75000 
C          C       0.64871   0.40080   0.75000 
C          C       0.85128   0.09920   0.75000 
C          C       0.35128   0.59920   0.75000 
C          C       0.32978   0.38628   0.84014 
C          C       0.82978   0.88628   0.84014 
C          C       0.67022   0.61373   0.84014 
C          C       0.17022   0.11373   0.84014 
C          C       0.67022   0.38628   0.65985 
C          C       0.17022   0.88628   0.65985 
C          C       0.32978   0.61373   0.65985 
C          C       0.82978   0.11373   0.65985 
C          C       0.67022   0.61373   0.65985 
C          C       0.17022   0.11373   0.65985 
C          C       0.32978   0.38628   0.65985 
C          C       0.82978   0.88628   0.65985 
C          C       0.32978   0.61373   0.84014 
C          C       0.82978   0.11373   0.84014 
C          C       0.67022   0.38628   0.84014 
C          C       0.17022   0.88628   0.84014 
H          H       0.84478   0.89656   0.90606 
H          H       0.34478   0.39656   0.90606 
H          H       0.15522   0.10344   0.90606 
H          H       0.65522   0.60345   0.90606 
H          H       0.15522   0.89656   0.59394 
H          H       0.65522   0.39656   0.59394 
H          H       0.84478   0.10344   0.59394 
H          H       0.34478   0.60345   0.59394 
H          H       0.15522   0.10344   0.59394 
H          H       0.65522   0.60345   0.59394 
H          H       0.84478   0.89656   0.59394 
H          H       0.34478   0.39656   0.59394 
H          H       0.84478   0.10344   0.90606 
H          H       0.34478   0.60345   0.90606 
H          H       0.15522   0.89656   0.90606 
H          H       0.65522   0.39656   0.90606 
C          C       0.78763   0.85745   0.83999 
C          C       0.28763   0.35745   0.83999 
C          C       0.21237   0.14255   0.83999 
C          C       0.71237   0.64255   0.83999 
C          C       0.21237   0.85745   0.66000 
C          C       0.71237   0.35745   0.66000 
C          C       0.78763   0.14255   0.66000 
C          C       0.28763   0.64255   0.66000 
C          C       0.21237   0.14255   0.66000 
C          C       0.71237   0.64255   0.66000 
C          C       0.78763   0.85745   0.66000 
C          C       0.28763   0.35745   0.66000 
C          C       0.78763   0.14255   0.83999 
C          C       0.28763   0.64255   0.83999 
C          C       0.21237   0.85745   0.83999 
C          C       0.71237   0.35745   0.83999 
H          H       0.77229   0.84698   0.90535 
H          H       0.27229   0.34698   0.90535 
H          H       0.22771   0.15302   0.90535 
H          H       0.72771   0.65302   0.90535 
H          H       0.22771   0.84698   0.59465 
H          H       0.72771   0.34698   0.59465 
H          H       0.77229   0.15302   0.59465 
H          H       0.27229   0.65302   0.59465 
H          H       0.22771   0.15302   0.59465 
H          H       0.72771   0.65302   0.59465 
H          H       0.77229   0.84698   0.59465 
H          H       0.27229   0.34698   0.59465 
H          H       0.77229   0.15302   0.90535 
H          H       0.27229   0.65302   0.90535 
H          H       0.22771   0.84698   0.90535 
H          H       0.72771   0.34698   0.90535 
C          C       0.76673   0.84284   0.75000 
C          C       0.26673   0.34284   0.75000 
C          C       0.23326   0.15716   0.75000 
C          C       0.73326   0.65716   0.75000 
C          C       0.23326   0.84284   0.75000 
C          C       0.73326   0.34284   0.75000 
C          C       0.76673   0.15716   0.75000 
C          C       0.26673   0.65716   0.75000 
O          O       0.15658   0.76396   0.75000 
O          O       0.65657   0.26396   0.75000 
O          O       0.84342   0.23605   0.75000 
O          O       0.34342   0.73605   0.75000 
O          O       0.84342   0.76396   0.75000 
O          O       0.34342   0.26396   0.75000 
O          O       0.15658   0.23605   0.75000 
O          O       0.65657   0.73605   0.75000 
N          N       0.00000   0.93886   0.75000 
N          N       0.50000   0.43886   0.75000 
N          N       0.00000   0.06114   0.75000 
N          N       0.50000   0.56114   0.75000 
Cu         Cu      0.00372  -0.00054   0.76211 
Cu         Cu      0.50000   0.50000   0.75000 
