data_crystal

_cell_length_a    26.97800
_cell_length_b    47.35700
_cell_length_c    8.45420
_cell_angle_alpha 90.00000
_cell_angle_beta  90.61100
_cell_angle_gamma 90.00000

_space_group_name_Hall 'P 1'
_space_group_name_H-M_alt  'P 1'

loop_
_symmetry_equiv_pos_as_xyz
'x,y,z' 

loop_
_atom_site_label
_atom_site_type_symbol
_atom_site_fract_x
_atom_site_fract_y
_atom_site_fract_z
C          C       0.54408   0.69001   0.25959 
C          C       0.04408   0.19001   0.25959 
C          C       0.45592   0.69001   0.24041 
C          C       0.95592   0.19001   0.24041 
C          C       0.50000   0.73355   0.25000 
C          C      -0.00000   0.23355   0.25000 
N          N       0.54286   0.71864   0.25951 
N          N       0.04286   0.21864   0.25951 
N          N       0.45714   0.71864   0.24049 
N          N       0.95714   0.21864   0.24049 
N          N       0.50000   0.67635   0.25000 
N          N      -0.00000   0.17635   0.25000 
C          C       0.58936   0.67493   0.26825 
C          C       0.08936   0.17493   0.26825 
C          C       0.41064   0.67493   0.23175 
C          C       0.91064   0.17493   0.23175 
C          C       0.50000   0.76343   0.25000 
C          C       0.00000   0.26343   0.25000 
C          C       0.63549   0.68869   0.24694 
C          C       0.13549   0.18869   0.24694 
C          C       0.36451   0.68869   0.25306 
C          C       0.86451   0.18869   0.25306 
C          C       0.45804   0.77897   0.19848 
C          C       0.95804   0.27897   0.19848 
C          C       0.54196   0.77897   0.30152 
C          C       0.04196   0.27897   0.30152 
C          C       0.40973   0.64544   0.20291 
C          C       0.90973   0.14544   0.20291 
C          C       0.59027   0.64544   0.29709 
C          C       0.09027   0.14544   0.29709 
C          C       0.63511   0.63030   0.30163 
C          C       0.13511   0.13030   0.30163 
C          C       0.36489   0.63030   0.19837 
C          C       0.86489   0.13030   0.19837 
C          C       0.54213   0.80870   0.29868 
C          C       0.04213   0.30870   0.29868 
C          C       0.45787   0.80870   0.20132 
C          C       0.95787   0.30870   0.20132 
C          C       0.31960   0.67362   0.24689 
C          C       0.81960   0.17362   0.24689 
C          C       0.68040   0.67362   0.25311 
C          C       0.18040   0.17362   0.25311 
C          C       0.95576   0.55392   0.25712 
C          C       0.45576   0.05392   0.25712 
C          C       0.04424   0.55392   0.24287 
C          C       0.54424   0.05392   0.24287 
C          C       0.91557   0.54489   0.35152 
C          C       0.41557   0.04489   0.35152 
C          C       0.08443   0.54489   0.14848 
C          C       0.58443   0.04489   0.14848 
C          C       0.87009   0.55945   0.35638 
C          C       0.37009   0.05945   0.35638 
C          C       0.12991   0.55945   0.14362 
C          C       0.62991   0.05945   0.14362 
C          C       0.86365   0.58472   0.27033 
C          C       0.36365   0.08472   0.27033 
C          C       0.13635   0.58472   0.22967 
C          C       0.63635   0.08472   0.22967 
C          C       0.90342   0.59485   0.17996 
C          C       0.40342   0.09485   0.17996 
C          C       0.09658   0.59485   0.32004 
C          C       0.59658   0.09485   0.32004 
C          C       0.94792   0.57946   0.17218 
C          C       0.44792   0.07946   0.17218 
C          C       0.05208   0.57946   0.32782 
C          C       0.55208   0.07946   0.32782 
H          H       0.91934   0.52724   0.41853 
H          H       0.41934   0.02724   0.41853 
H          H       0.08066   0.52724   0.08146 
H          H       0.58066   0.02724   0.08146 
H          H       0.84209   0.55168   0.42457 
H          H       0.34209   0.05168   0.42457 
H          H       0.15791   0.55168   0.07543 
H          H       0.65791   0.05168   0.07543 
H          H       0.90018   0.61333   0.11790 
H          H       0.40018   0.11333   0.11790 
H          H       0.09982   0.61333   0.38210 
H          H       0.59982   0.11333   0.38210 
H          H       0.97518   0.58732   0.10324 
H          H       0.47518   0.08732   0.10324 
H          H       0.02482   0.58732   0.39676 
H          H       0.52482   0.08732   0.39676 
C          C       0.95984   0.49317   0.19018 
C          C       0.45984   0.99317   0.19018 
C          C       0.04016   0.49317   0.30982 
C          C       0.54016   0.99317   0.30982 
C          C       0.95917   0.46344   0.19363 
C          C       0.45917   0.96344   0.19363 
C          C       0.04083   0.46344   0.30637 
C          C       0.54083   0.96344   0.30637 
H          H       0.92950   0.50296   0.14383 
H          H       0.42950   0.00296   0.14383 
H          H       0.07050   0.50296   0.35617 
H          H       0.57050   0.00296   0.35617 
H          H       0.92750   0.45399   0.15398 
H          H       0.42750   0.95399   0.15398 
H          H       0.07250   0.45399   0.34602 
H          H       0.57250   0.95399   0.34602 
C          C       0.81835   0.59939   0.27371 
C          C       0.31835   0.09939   0.27371 
C          C       0.18165   0.59939   0.22629 
C          C       0.68165   0.09939   0.22629 
C          C       0.77697   0.58932   0.18770 
C          C       0.27697   0.08932   0.18770 
C          C       0.22303   0.58932   0.31230 
C          C       0.72303   0.08932   0.31230 
C          C       0.73159   0.60400   0.18982 
C          C       0.23159   0.10400   0.18982 
C          C       0.26841   0.60400   0.31018 
C          C       0.76841   0.10400   0.31018 
C          C       0.72616   0.62899   0.27955 
C          C       0.22616   0.12899   0.27955 
C          C       0.27384   0.62899   0.22045 
C          C       0.77384   0.12899   0.22045 
C          C       0.76738   0.63842   0.36970 
C          C       0.26738   0.13842   0.36970 
C          C       0.23262   0.63842   0.13030 
C          C       0.73262   0.13842   0.13030 
C          C       0.81302   0.62412   0.36505 
C          C       0.31302   0.12412   0.36505 
C          C       0.18698   0.62412   0.13495 
C          C       0.68698   0.12412   0.13495 
H          H       0.77976   0.57136   0.12174 
H          H       0.27976   0.07136   0.12174 
H          H       0.22024   0.57136   0.37827 
H          H       0.72024   0.07136   0.37827 
H          H       0.70244   0.59629   0.12570 
H          H       0.20244   0.09629   0.12570 
H          H       0.29756   0.59629   0.37430 
H          H       0.79756   0.09629   0.37430 
H          H       0.76418   0.65547   0.44360 
H          H       0.26418   0.15547   0.44360 
H          H       0.23582   0.65547   0.05640 
H          H       0.73582   0.15547   0.05640 
H          H       0.84193   0.63167   0.43150 
H          H       0.34193   0.13167   0.43150 
H          H       0.15807   0.63167   0.06850 
H          H       0.65807   0.13167   0.06850 
C          C       0.03429   0.40082   0.34082 
C          C       0.53429   0.90082   0.34082 
C          C       0.96571   0.40082   0.15918 
C          C       0.46571   0.90082   0.15918 
C          C       0.03417   0.37110   0.34176 
C          C       0.53417   0.87110   0.34176 
C          C       0.96583   0.37110   0.15823 
C          C       0.46583   0.87110   0.15823 
H          H       0.06005   0.41024   0.41228 
H          H       0.56005   0.91024   0.41228 
H          H       0.93995   0.41024   0.08772 
H          H       0.43995   0.91024   0.08772 
H          H       0.05938   0.36160   0.41562 
H          H       0.55938   0.86160   0.41562 
H          H       0.94062   0.36160   0.08438 
H          H       0.44062   0.86160   0.08438 
N          N      -0.00000   0.53893   0.25000 
N          N       0.50000   0.03893   0.25000 
C          C       0.00000   0.50945   0.25000 
C          C       0.50000   0.00945   0.25000 
C          C       0.00000   0.44727   0.25000 
C          C       0.50000   0.94727   0.25000 
C          C       0.00000   0.41697   0.25000 
C          C       0.50000   0.91697   0.25000 
C          C       0.00000   0.35502   0.25000 
C          C       0.50000   0.85502   0.25000 
H          H       0.63685   0.70993   0.22459 
H          H       0.13685   0.20993   0.22459 
H          H       0.36315   0.70993   0.27541 
H          H       0.86315   0.20993   0.27541 
H          H       0.42697   0.76873   0.15779 
H          H       0.92697   0.26873   0.15779 
H          H       0.57303   0.76873   0.34221 
H          H       0.07303   0.26873   0.34221 
H          H       0.44202   0.63459   0.18489 
H          H       0.94202   0.13459   0.18489 
H          H       0.55798   0.63459   0.31511 
H          H       0.05798   0.13459   0.31511 
C          C       0.68094   0.64413   0.27926 
C          C       0.18094   0.14413   0.27926 
C          C       0.31906   0.64413   0.22074 
C          C       0.81906   0.14413   0.22074 
C          C       0.50000   0.82474   0.25000 
C          C      -0.00000   0.32474   0.25000 
H          H       0.71290   0.68435   0.23609 
H          H       0.63408   0.60898   0.32203 
H          H       0.21290   0.18435   0.23609 
H          H       0.13408   0.10898   0.32203 
H          H       0.28710   0.68435   0.26391 
H          H       0.36592   0.60898   0.17797 
H          H       0.78710   0.18435   0.26391 
H          H       0.86592   0.10898   0.17797 
H          H       0.42559   0.81830   0.16709 
H          H       0.92559   0.31830   0.16709 
H          H       0.57441   0.81830   0.33292 
H          H       0.07441   0.31830   0.33292 
C          C       0.54408   0.69001   0.75959 
C          C       0.04408   0.19001   0.75959 
C          C       0.45592   0.69001   0.74041 
C          C       0.95592   0.19001   0.74041 
C          C       0.50000   0.73355   0.75000 
C          C       0.00000   0.23355   0.75000 
N          N       0.54286   0.71864   0.75952 
N          N       0.04286   0.21864   0.75952 
N          N       0.45714   0.71864   0.74048 
N          N       0.95714   0.21864   0.74048 
N          N       0.50000   0.67635   0.75000 
N          N       0.00000   0.17635   0.75000 
C          C       0.58936   0.67493   0.76825 
C          C       0.08936   0.17493   0.76825 
C          C       0.41064   0.67493   0.73175 
C          C       0.91064   0.17493   0.73175 
C          C       0.50000   0.76343   0.75000 
C          C       0.00000   0.26343   0.75000 
C          C       0.63549   0.68869   0.74694 
C          C       0.13549   0.18869   0.74694 
C          C       0.36451   0.68869   0.75306 
C          C       0.86451   0.18869   0.75306 
C          C       0.45804   0.77897   0.69848 
C          C       0.95804   0.27897   0.69848 
C          C       0.54196   0.77897   0.80152 
C          C       0.04196   0.27897   0.80152 
C          C       0.40973   0.64544   0.70291 
C          C       0.90973   0.14544   0.70291 
C          C       0.59027   0.64544   0.79709 
C          C       0.09027   0.14544   0.79709 
C          C       0.63511   0.63030   0.80163 
C          C       0.13511   0.13030   0.80163 
C          C       0.36489   0.63030   0.69837 
C          C       0.86489   0.13030   0.69837 
C          C       0.54213   0.80870   0.79868 
C          C       0.04213   0.30870   0.79868 
C          C       0.45787   0.80870   0.70132 
C          C       0.95787   0.30870   0.70132 
C          C       0.31960   0.67362   0.74689 
C          C       0.81960   0.17362   0.74689 
C          C       0.68040   0.67362   0.75311 
C          C       0.18040   0.17362   0.75311 
C          C       0.95576   0.55392   0.75713 
C          C       0.45576   0.05392   0.75713 
C          C       0.04424   0.55392   0.74287 
C          C       0.54424   0.05392   0.74287 
C          C       0.91557   0.54489   0.85152 
C          C       0.41557   0.04489   0.85152 
C          C       0.08443   0.54489   0.64848 
C          C       0.58443   0.04489   0.64848 
C          C       0.87009   0.55945   0.85638 
C          C       0.37009   0.05945   0.85638 
C          C       0.12991   0.55945   0.64362 
C          C       0.62991   0.05945   0.64362 
C          C       0.86365   0.58472   0.77033 
C          C       0.36365   0.08472   0.77033 
C          C       0.13635   0.58472   0.72967 
C          C       0.63635   0.08472   0.72967 
C          C       0.90342   0.59485   0.67996 
C          C       0.40342   0.09485   0.67996 
C          C       0.09658   0.59485   0.82004 
C          C       0.59658   0.09485   0.82004 
C          C       0.94792   0.57946   0.67218 
C          C       0.44792   0.07946   0.67218 
C          C       0.05208   0.57946   0.82782 
C          C       0.55208   0.07946   0.82782 
H          H       0.91934   0.52724   0.91853 
H          H       0.41934   0.02724   0.91853 
H          H       0.08066   0.52724   0.58147 
H          H       0.58066   0.02724   0.58147 
H          H       0.84209   0.55168   0.92457 
H          H       0.34209   0.05168   0.92457 
H          H       0.15791   0.55168   0.57543 
H          H       0.65791   0.05168   0.57543 
H          H       0.90018   0.61333   0.61790 
H          H       0.40018   0.11333   0.61790 
H          H       0.09982   0.61333   0.88210 
H          H       0.59982   0.11333   0.88210 
H          H       0.97518   0.58732   0.60324 
H          H       0.47518   0.08732   0.60324 
H          H       0.02482   0.58732   0.89676 
H          H       0.52482   0.08732   0.89676 
C          C       0.95984   0.49317   0.69019 
C          C       0.45984   0.99317   0.69019 
C          C       0.04016   0.49317   0.80981 
C          C       0.54016   0.99317   0.80981 
C          C       0.95917   0.46344   0.69363 
C          C       0.45917   0.96344   0.69363 
C          C       0.04083   0.46344   0.80637 
C          C       0.54083   0.96344   0.80637 
H          H       0.92950   0.50296   0.64384 
H          H       0.42950   0.00296   0.64384 
H          H       0.07050   0.50296   0.85616 
H          H       0.57050   0.00296   0.85616 
H          H       0.92750   0.45399   0.65398 
H          H       0.42750   0.95399   0.65398 
H          H       0.07250   0.45399   0.84602 
H          H       0.57250   0.95399   0.84602 
C          C       0.81835   0.59939   0.77371 
C          C       0.31835   0.09939   0.77371 
C          C       0.18165   0.59939   0.72629 
C          C       0.68165   0.09939   0.72629 
C          C       0.77697   0.58932   0.68770 
C          C       0.27697   0.08932   0.68770 
C          C       0.22303   0.58932   0.81230 
C          C       0.72303   0.08932   0.81230 
C          C       0.73159   0.60400   0.68981 
C          C       0.23159   0.10400   0.68981 
C          C       0.26841   0.60400   0.81019 
C          C       0.76841   0.10400   0.81019 
C          C       0.72616   0.62899   0.77955 
C          C       0.22616   0.12899   0.77955 
C          C       0.27384   0.62899   0.72045 
C          C       0.77384   0.12899   0.72045 
C          C       0.76738   0.63842   0.86970 
C          C       0.26738   0.13842   0.86970 
C          C       0.23262   0.63842   0.63030 
C          C       0.73262   0.13842   0.63030 
C          C       0.81302   0.62412   0.86505 
C          C       0.31302   0.12412   0.86505 
C          C       0.18698   0.62412   0.63496 
C          C       0.68698   0.12412   0.63496 
H          H       0.77976   0.57136   0.62174 
H          H       0.27976   0.07136   0.62174 
H          H       0.22024   0.57136   0.87826 
H          H       0.72024   0.07136   0.87826 
H          H       0.70244   0.59629   0.62570 
H          H       0.20244   0.09629   0.62570 
H          H       0.29756   0.59629   0.87430 
H          H       0.79756   0.09629   0.87430 
H          H       0.76418   0.65547   0.94360 
H          H       0.26418   0.15547   0.94360 
H          H       0.23582   0.65547   0.55640 
H          H       0.73582   0.15547   0.55640 
H          H       0.84193   0.63167   0.93150 
H          H       0.34193   0.13167   0.93150 
H          H       0.15807   0.63167   0.56850 
H          H       0.65807   0.13167   0.56850 
C          C       0.03429   0.40082   0.84082 
C          C       0.53429   0.90082   0.84082 
C          C       0.96571   0.40082   0.65918 
C          C       0.46571   0.90082   0.65918 
C          C       0.03417   0.37110   0.84176 
C          C       0.53417   0.87110   0.84176 
C          C       0.96583   0.37110   0.65824 
C          C       0.46583   0.87110   0.65824 
H          H       0.06005   0.41024   0.91228 
H          H       0.56005   0.91024   0.91228 
H          H       0.93995   0.41024   0.58773 
H          H       0.43995   0.91024   0.58773 
H          H       0.05938   0.36160   0.91562 
H          H       0.55938   0.86160   0.91562 
H          H       0.94062   0.36160   0.58438 
H          H       0.44062   0.86160   0.58438 
N          N       0.00000   0.53893   0.75000 
N          N       0.50000   0.03893   0.75000 
C          C       0.00000   0.50945   0.75000 
C          C       0.50000   0.00945   0.75000 
C          C       0.00000   0.44727   0.75000 
C          C       0.50000   0.94727   0.75000 
C          C       0.00000   0.41697   0.75000 
C          C       0.50000   0.91697   0.75000 
C          C       0.00000   0.35502   0.75000 
C          C       0.50000   0.85502   0.75000 
H          H       0.63685   0.70993   0.72459 
H          H       0.13685   0.20993   0.72459 
H          H       0.36315   0.70993   0.77541 
H          H       0.86315   0.20993   0.77541 
H          H       0.42697   0.76873   0.65779 
H          H       0.92697   0.26873   0.65779 
H          H       0.57303   0.76873   0.84221 
H          H       0.07303   0.26873   0.84221 
H          H       0.44202   0.63459   0.68489 
H          H       0.94202   0.13459   0.68489 
H          H       0.55798   0.63459   0.81511 
H          H       0.05798   0.13459   0.81511 
C          C       0.68094   0.64413   0.77926 
C          C       0.18094   0.14413   0.77926 
C          C       0.31906   0.64413   0.72074 
C          C       0.81906   0.14413   0.72074 
C          C       0.50000   0.82474   0.75000 
C          C       0.00000   0.32474   0.75000 
H          H       0.71290   0.68435   0.73609 
H          H       0.63408   0.60898   0.82203 
H          H       0.21290   0.18435   0.73609 
H          H       0.13408   0.10898   0.82203 
H          H       0.28710   0.68435   0.76391 
H          H       0.36592   0.60898   0.67797 
H          H       0.78710   0.18435   0.76391 
H          H       0.86592   0.10898   0.67797 
H          H       0.42559   0.81830   0.66708 
H          H       0.92559   0.31830   0.66708 
H          H       0.57441   0.81830   0.83292 
H          H       0.07441   0.31830   0.83292 
