data_crystal
 
_cell_length_a    34.80260
_cell_length_b    34.80360
_cell_length_c    4.06920
_cell_angle_alpha 85.01700
_cell_angle_beta  85.15980
_cell_angle_gamma 121.47150
 
_symmetry_space_group_name_Hall 'P 1'
_symmetry_space_group_name_H-M  'P 1'
 
loop_
_symmetry_equiv_pos_as_xyz
 'x,y,z' 
 
loop_
_atom_site_label
_atom_site_type_symbol
_atom_site_fract_x
_atom_site_fract_y
_atom_site_fract_z
_atom_site_charge
C          C       0.71106   0.35678   0.57143   0.0000000000
C          C       0.64170   0.35835   0.49929   0.0000000000
C          C       0.64322   0.28899   0.42666   0.0000000000
C          C       0.68836   0.31166   0.49899   0.0000000000
C          C       0.68608   0.37833   0.58612   0.0000000000
C          C       0.62169   0.31400   0.41223   0.0000000000
H          H       0.70518   0.29484   0.49894   0.0000000000
H          H       0.70075   0.40947   0.66387   0.0000000000
H          H       0.59052   0.29936   0.33455   0.0000000000
C          C       0.75743   0.37992   0.62056   0.0000000000
C          C       0.61825   0.38179   0.49956   0.0000000000
C          C       0.62005   0.24263   0.37751   0.0000000000
C          C       0.28756   0.64029   0.54933   0.0000000000
C          C       0.35815   0.64186   0.50096   0.0000000000
C          C       0.35968   0.71245   0.45156   0.0000000000
C          C       0.77562   0.35756   0.79569   0.0000000000
C          C       0.34409   0.73827   0.28592   0.0000000000
C          C       0.64172   0.42977   0.41114   0.0000000000
C          C       0.26082   0.59779   0.43614   0.0000000000
C          C       0.57346   0.21223   0.51278   0.0000000000
C          C       0.40082   0.65917   0.29869   0.0000000000
C          C       0.64237   0.22444   0.20280   0.0000000000
C          C       0.26174   0.65585   0.71445   0.0000000000
C          C       0.57030   0.35831   0.58834   0.0000000000
C          C       0.40220   0.73920   0.56487   0.0000000000
C          C       0.78783   0.42651   0.48492   0.0000000000
C          C       0.34087   0.59917   0.70357   0.0000000000
C          C       0.82220   0.38035   0.82638   0.0000000000
C          C       0.36755   0.78614   0.24732   0.0000000000
C          C       0.61864   0.45301   0.41899   0.0000000000
C          C       0.21290   0.57326   0.47653   0.0000000000
C          C       0.55047   0.16581   0.47919   0.0000000000
C          C       0.42439   0.63639   0.29751   0.0000000000
C          C       0.61956   0.17786   0.17227   0.0000000000
C          C       0.21387   0.63237   0.75268   0.0000000000
C          C       0.54705   0.38139   0.58121   0.0000000000
C          C       0.42669   0.78713   0.52418   0.0000000000
C          C       0.83425   0.44948   0.51864   0.0000000000
C          C       0.36364   0.57560   0.70520   0.0000000000
C          C       0.85248   0.42657   0.68391   0.0000000000
C          C       0.57053   0.42952   0.50030   0.0000000000
C          C       0.57335   0.14758   0.31445   0.0000000000
C          C       0.18866   0.59062   0.63227   0.0000000000
C          C       0.40603   0.59398   0.50145   0.0000000000
C          C       0.40931   0.81137   0.36789   0.0000000000
H          H       0.75507   0.32423   0.90391   0.0000000000
H          H       0.31445   0.72219   0.19264   0.0000000000
H          H       0.67624   0.44869   0.33822   0.0000000000
H          H       0.27619   0.58364   0.32115   0.0000000000
H          H       0.55575   0.22338   0.64424   0.0000000000
H          H       0.41589   0.68950   0.14806   0.0000000000
H          H       0.67569   0.24498   0.09479   0.0000000000
H          H       0.27782   0.68549   0.80762   0.0000000000
H          H       0.55140   0.32377   0.66101   0.0000000000
H          H       0.41637   0.72384   0.68015   0.0000000000
H          H       0.77667   0.44424   0.35315   0.0000000000
H          H       0.31056   0.58409   0.85410   0.0000000000
H          H       0.83385   0.36287   0.95515   0.0000000000
H          H       0.35397   0.80243   0.12902   0.0000000000
H          H       0.63795   0.48777   0.36459   0.0000000000
H          H       0.19591   0.54298   0.38623   0.0000000000
H          H       0.51691   0.14522   0.58258   0.0000000000
H          H       0.45491   0.65090   0.14369   0.0000000000
H          H       0.63702   0.16621   0.04383   0.0000000000
H          H       0.19758   0.64593   0.87061   0.0000000000
H          H       0.51231   0.36207   0.63586   0.0000000000
H          H       0.45698   0.80412   0.61461   0.0000000000
H          H       0.85485   0.48305   0.41498   0.0000000000
H          H       0.34915   0.54506   0.85917   0.0000000000
C          C       0.42929   0.57071   0.50156   0.0000000000
C          C       0.47635   0.52366   0.50142   0.0000000000
C          C       0.54705   0.45300   0.50065   0.0000000000
C          C       0.49961   0.50041   0.50121   0.0000000000
C          C       0.43269   0.85929   0.33887   0.0000000000
C          C       0.48044   0.95622   0.30179   0.0000000000
C          C       0.55080   0.10035   0.29948   0.0000000000
C          C       0.50415   0.00405   0.29293   0.0000000000
C          C       0.14074   0.56722   0.66093   0.0000000000
C          C       0.04383   0.51945   0.69746   0.0000000000
C          C       0.89971   0.44911   0.69914   0.0000000000
C          C       0.99600   0.49574   0.70613   0.0000000000
C          C       0.47575   0.59325   0.54237   0.0000000000
C          C       0.49893   0.57010   0.54203   0.0000000000
H          H       0.49305   0.62673   0.57556   0.0000000000
H          H       0.53245   0.58740   0.57458   0.0000000000
C          C       0.50537   0.43586   0.71566   0.0000000000
C          C       0.48184   0.45866   0.71346   0.0000000000
H          H       0.49164   0.40662   0.88288   0.0000000000
H          H       0.45190   0.44487   0.87320   0.0000000000
C          C       0.41052   0.88049   0.46516   0.0000000000
C          C       0.43409   0.92812   0.44862   0.0000000000
H          H       0.37711   0.86132   0.57502   0.0000000000
H          H       0.41711   0.94207   0.54968   0.0000000000
C          C       0.57103   0.07552   0.38938   0.0000000000
C          C       0.54811   0.02823   0.38647   0.0000000000
H          H       0.60247   0.09157   0.46376   0.0000000000
H          H       0.56364   0.01146   0.45890   0.0000000000
C          C       0.11286   0.52107   0.81130   0.0000000000
C          C       0.06516   0.49763   0.83001   0.0000000000
H          H       0.12713   0.50422   0.90975   0.0000000000
H          H       0.04607   0.46435   0.94288   0.0000000000
C          C       0.92375   0.49279   0.79649   0.0000000000
C          C       0.97097   0.51554   0.80221   0.0000000000
H          H       0.90702   0.50846   0.86517   0.0000000000
H          H       0.98696   0.54685   0.87825   0.0000000000
C          C       0.40674   0.52426   0.46077   0.0000000000
C          C       0.42989   0.50108   0.46096   0.0000000000
H          H       0.37325   0.50696   0.42765   0.0000000000
H          H       0.41260   0.46757   0.42835   0.0000000000
C          C       0.56413   0.49474   0.28597   0.0000000000
C          C       0.54131   0.51825   0.28872   0.0000000000
H          H       0.59332   0.50852   0.11856   0.0000000000
H          H       0.55506   0.54824   0.12919   0.0000000000
C          C       0.11953   0.58940   0.53404   0.0000000000
C          C       0.07191   0.56582   0.55033   0.0000000000
H          H       0.13869   0.62281   0.42397   0.0000000000
H          H       0.05795   0.58280   0.44887   0.0000000000
C          C       0.92452   0.42887   0.60967   0.0000000000
C          C       0.97181   0.45179   0.61279   0.0000000000
H          H       0.90845   0.39744   0.53545   0.0000000000
H          H       0.98856   0.43626   0.54066   0.0000000000
C          C       0.47882   0.88719   0.18874   0.0000000000
C          C       0.50226   0.93490   0.16977   0.0000000000
H          H       0.49567   0.87294   0.09068   0.0000000000
H          H       0.53552   0.95400   0.05709   0.0000000000
C          C       0.50711   0.07632   0.20197   0.0000000000
C          C       0.48435   0.02910   0.19645   0.0000000000
H          H       0.49144   0.09306   0.13301   0.0000000000
H          H       0.45303   0.01312   0.12028   0.0000000000
N          N       0.33516   0.66484   0.50063   0.0000000000
