data_crystal
 
_cell_length_a    19.66390
_cell_length_b    19.66390
_cell_length_c    8.63020
_cell_angle_alpha 90.00000
_cell_angle_beta  90.00000
_cell_angle_gamma 120.00000
 
_symmetry_space_group_name_Hall 'P 1'
_symmetry_space_group_name_H-M  'P 1'
 
loop_
_symmetry_equiv_pos_as_xyz
 'x,y,z' 
 
loop_
_atom_site_label
_atom_site_type_symbol
_atom_site_fract_x
_atom_site_fract_y
_atom_site_fract_z
C          C       0.25258   0.62629   0.25000 
C          C       0.37371   0.62629   0.25000 
C          C       0.37371   0.74742   0.25000 
N          N       0.29409   0.58817   0.25000 
N          N       0.41183   0.70591   0.25000 
N          N       0.29409   0.70591   0.25000 
C          C       0.16945   0.58473   0.25000 
C          C       0.41527   0.58473   0.25000 
C          C       0.41527   0.83055   0.25000 
C          C       0.12626   0.50352   0.28565 
C          C       0.49648   0.62274   0.28565 
C          C       0.37726   0.87374   0.28565 
C          C       0.49648   0.87374   0.21435 
C          C       0.37726   0.50352   0.21435 
C          C       0.12626   0.62274   0.21435 
C          C       0.04363   0.58146   0.21421 
C          C       0.41854   0.46218   0.21421 
C          C       0.53782   0.95637   0.21421 
C          C       0.41854   0.95637   0.28580 
C          C       0.53782   0.58146   0.28580 
C          C       0.04363   0.46218   0.28580 
C          C       0.55469   0.20725   0.16720 
C          C       0.51298   0.12461   0.16631 
H          H       0.53211   0.23530   0.10598 
H          H       0.46239   0.09585   0.10265 
C          C       0.79275   0.34744   0.16720 
C          C       0.87539   0.38837   0.16631 
H          H       0.76470   0.29681   0.10598 
H          H       0.90415   0.36655   0.10265 
C          C       0.65256   0.44531   0.16720 
C          C       0.61163   0.48702   0.16631 
H          H       0.70319   0.46789   0.10598 
H          H       0.63345   0.53761   0.10265 
C          C       0.79275   0.44531   0.33281 
C          C       0.87539   0.48702   0.33370 
H          H       0.76470   0.46789   0.39402 
H          H       0.90415   0.53761   0.39736 
C          C       0.65256   0.20725   0.33281 
C          C       0.61163   0.12461   0.33370 
H          H       0.70319   0.23530   0.39402 
H          H       0.63345   0.09585   0.39736 
C          C       0.55469   0.34744   0.33281 
C          C       0.51298   0.38837   0.33370 
H          H       0.53211   0.29681   0.39402 
H          H       0.46239   0.36655   0.39736 
N          N       0.66667   0.33333   0.25000 
C          C       0.62588   0.25175   0.25000 
C          C       0.54095   0.08190   0.25000 
C          C       0.74825   0.37413   0.25000 
C          C       0.91810   0.45905   0.25000 
C          C       0.62588   0.37413   0.25000 
C          C       0.54095   0.45905   0.25000 
H          H       0.15473   0.47352   0.31301 
H          H       0.52648   0.68121   0.31301 
H          H       0.31879   0.84527   0.31301 
H          H       0.52648   0.84527   0.18699 
H          H       0.31879   0.47352   0.18699 
H          H       0.15473   0.68121   0.18699 
C          C       0.00104   0.50052   0.25000 
C          C       0.49948   0.50052   0.25000 
C          C       0.49948   0.99897   0.25000 
H          H       0.01469   0.40374   0.31352 
H          H       0.01469   0.61095   0.18648 
H          H       0.59626   0.61095   0.31352 
H          H       0.38905   0.40374   0.18648 
H          H       0.38905   0.98531   0.31352 
H          H       0.59626   0.98531   0.18648 
C          C       0.25258   0.62629   0.75000 
C          C       0.37371   0.62629   0.75000 
C          C       0.37371   0.74742   0.75000 
N          N       0.29409   0.58817   0.75000 
N          N       0.41183   0.70591   0.75000 
N          N       0.29409   0.70591   0.75000 
C          C       0.16945   0.58473   0.75000 
C          C       0.41527   0.58473   0.75000 
C          C       0.41527   0.83055   0.75000 
C          C       0.12626   0.50352   0.78565 
C          C       0.49648   0.62274   0.78565 
C          C       0.37726   0.87374   0.78565 
C          C       0.49648   0.87374   0.71435 
C          C       0.37726   0.50352   0.71435 
C          C       0.12626   0.62274   0.71435 
C          C       0.04363   0.58146   0.71420 
C          C       0.41854   0.46218   0.71420 
C          C       0.53782   0.95637   0.71420 
C          C       0.41854   0.95637   0.78580 
C          C       0.53782   0.58146   0.78580 
C          C       0.04363   0.46218   0.78580 
C          C       0.55469   0.20725   0.66719 
C          C       0.51298   0.12461   0.66631 
H          H       0.53211   0.23530   0.60598 
H          H       0.46239   0.09585   0.60265 
C          C       0.79275   0.34744   0.66719 
C          C       0.87539   0.38837   0.66631 
H          H       0.76470   0.29681   0.60598 
H          H       0.90415   0.36655   0.60265 
C          C       0.65256   0.44531   0.66719 
C          C       0.61163   0.48702   0.66631 
H          H       0.70319   0.46789   0.60598 
H          H       0.63345   0.53761   0.60265 
C          C       0.79275   0.44531   0.83281 
C          C       0.87539   0.48702   0.83369 
H          H       0.76470   0.46789   0.89402 
H          H       0.90415   0.53761   0.89736 
C          C       0.65256   0.20725   0.83281 
C          C       0.61163   0.12461   0.83369 
H          H       0.70319   0.23530   0.89402 
H          H       0.63345   0.09585   0.89736 
C          C       0.55469   0.34744   0.83281 
C          C       0.51298   0.38837   0.83369 
H          H       0.53211   0.29681   0.89402 
H          H       0.46239   0.36655   0.89736 
N          N       0.66667   0.33333   0.75000 
C          C       0.62588   0.25175   0.75000 
C          C       0.54095   0.08190   0.75000 
C          C       0.74825   0.37413   0.75000 
C          C       0.91810   0.45905   0.75000 
C          C       0.62588   0.37413   0.75000 
C          C       0.54095   0.45905   0.75000 
H          H       0.15473   0.47352   0.81301 
H          H       0.52648   0.68121   0.81301 
H          H       0.31879   0.84527   0.81301 
H          H       0.52648   0.84527   0.68700 
H          H       0.31879   0.47352   0.68700 
H          H       0.15473   0.68121   0.68700 
C          C       0.00104   0.50052   0.75000 
C          C       0.49948   0.50052   0.75000 
C          C       0.49948   0.99897   0.75000 
H          H       0.01469   0.40374   0.81352 
H          H       0.01469   0.61095   0.68648 
H          H       0.59626   0.61095   0.81352 
H          H       0.38905   0.40374   0.68648 
H          H       0.38905   0.98531   0.81352 
H          H       0.59626   0.98531   0.68648 
