data_crystal
 
_cell_length_a    26.97800
_cell_length_b    27.25110
_cell_length_c    8.45420
_cell_angle_alpha 89.69760
_cell_angle_beta  89.38900
_cell_angle_gamma 60.33100
 
_space_group_name_Hall 'P 1'
_space_group_name_H-M_alt  'P 1'
 
loop_
_symmetry_equiv_pos_as_xyz
 'x,y,z' 
 
loop_
_atom_site_label
_atom_site_type_symbol
_atom_site_fract_x
_atom_site_fract_y
_atom_site_fract_z
C          C       1.23485  -1.38117  -0.26271 
C          C       1.14639  -1.38072  -0.26025 
C          C       1.23387  -1.46813  -0.26204 
N          N       1.26208  -1.43844  -0.26177 
N          N       1.17598  -1.43801  -0.26198 
N          N       1.17703  -1.35353  -0.26143 
C          C       1.26525  -1.35118  -0.26482 
C          C       1.08602  -1.35031  -0.25533 
C          C       1.26360  -1.52801  -0.26182 
C          C       1.32271  -1.37677  -0.21485 
C          C       1.05337  -1.37544  -0.30192 
C          C       1.23574  -1.55910  -0.29753 
C          C       1.32248  -1.55931  -0.22561 
C          C       1.05594  -1.29358  -0.20191 
C          C       1.23929  -1.29434  -0.31697 
C          C       1.26933  -1.26432  -0.31846 
C          C       0.99594  -1.26346  -0.19397 
C          C       1.35209  -1.61877  -0.22524 
C          C       1.26532  -1.61859  -0.29763 
C          C       0.99332  -1.34526  -0.29475 
C          C       1.35272  -1.34670  -0.21552 
C          C       1.50885  -1.10644  -0.24404 
C          C       0.59756  -1.10710  -0.22548 
C          C       1.45995  -1.08853  -0.33980 
C          C       0.62907  -1.08945  -0.13105 
C          C       1.42880  -1.11746  -0.34454 
C          C       0.68920  -1.11833  -0.12878 
C          C       1.44751  -1.16819  -0.25964 
C          C       0.72076  -1.16870  -0.21560 
C          C       1.49727  -1.18842  -0.16859 
C          C       0.69064  -1.18925  -0.30269 
C          C       1.52618  -1.15745  -0.15923 
C          C       0.63073  -1.15834  -0.30968 
H          H       1.44630  -1.05336  -0.40773 
H          H       0.60781  -1.05430  -0.06307 
H          H       1.39271  -1.10160  -0.41165 
H          H       0.70971  -1.10269  -0.06214 
H          H       1.51234  -1.22532  -0.10637 
H          H       0.71213  -1.22651  -0.36362 
H          H       1.56087  -1.17294  -0.08852 
H          H       0.61121  -1.17402  -0.37842 
C          C       1.45172  -0.98427  -0.18535 
C          C       0.53446  -0.98562  -0.29118 
C          C       1.42130  -0.92485  -0.19650 
C          C       0.50574  -0.92615  -0.28975 
H          H       1.43026  -1.00317  -0.14008 
H          H       0.57545  -1.00543  -0.33155 
H          H       1.37917  -0.90561  -0.16574 
H          H       0.52964  -0.90792  -0.31904 
C          C       1.41733  -1.19806  -0.26373 
C          C       0.78086  -1.19787  -0.21770 
C          C       1.36261  -1.17570  -0.19399 
C          C       0.81137  -1.17362  -0.28919 
C          C       1.33319  -1.20576  -0.19421 
C          C       0.87154  -1.20363  -0.29668 
C          C       1.35643  -1.25957  -0.26613 
C          C       0.90330  -1.25857  -0.23119 
C          C       1.41135  -1.28216  -0.33667 
C          C       0.87214  -1.28160  -0.15681 
C          C       1.44147  -1.25210  -0.33465 
C          C       0.81267  -1.25230  -0.15128 
H          H       0.78988  -0.13408  -0.33809 
H          H       0.89212  -0.18515  -0.35209 
H          H       1.42981  -1.32082  -0.39110 
H          H       1.48121  -1.26988  -0.38585 
C          C       0.43488  -0.79981  -0.34700 
C          C       1.36480  -0.79957  -0.16894 
C          C       0.40521  -0.74070  -0.34798 
C          C       1.33390  -0.74004  -0.17336 
H          H       1.34856  -0.81827  -0.09625 
H          H       1.29702  -0.71917  -0.10789 
N          N       0.53834  -1.07669  -0.23491 
C          C       0.50922  -1.01768  -0.23697 
C          C       0.44717  -0.89299  -0.24826 
C          C       0.41657  -0.83235  -0.25599 
C          C       0.35391  -0.70916  -0.26192 
H          H       1.34319  -1.41772  -0.17583 
H          H       1.07317  -1.41619  -0.34242 
H          H       1.19329  -1.53850  -0.32494 
H          H       1.34455  -1.53894  -0.19805 
H          H       1.07767  -1.27367  -0.16639 
H          H       1.19801  -1.27418  -0.35555 
C          C       1.32646  -1.28991  -0.26691 
C          C       0.96358  -1.28882  -0.23997 
C          C       1.32405  -1.64942  -0.26180 
H          H       1.39394  -1.36656  -0.17653 
H          H       0.97130  -1.36490  -0.33055 
H          H       1.24912  -1.22339  -0.35818 
H          H       0.97602  -1.22282  -0.15264 
H          H       1.24362  -1.63932  -0.32533 
H          H       1.39455  -1.63976  -0.19709 
N          N       0.48061  -0.81829  -0.44317 
S          S       0.49148  -0.76802  -0.52571 
N          N       0.43067  -0.71907  -0.43939 
N          N       0.33320  -0.12616  -0.11852 
S          S       0.26999  -0.11467  -0.04537 
N          N       0.28308  -0.17759  -0.11722 
N          N       0.89345  -0.33157  -0.08288 
S          S       0.84308  -0.34464  -0.00745 
N          N       0.79197  -0.28177  -0.07578 
C          C       1.23485  -1.38117   0.23729 
C          C       1.14639  -1.38072   0.23975 
C          C       1.23387  -1.46813   0.23796 
N          N       1.26208  -1.43844   0.23823 
N          N       1.17598  -1.43801   0.23802 
N          N       1.17703  -1.35353   0.23858 
C          C       1.26525  -1.35118   0.23518 
C          C       1.08602  -1.35031   0.24467 
C          C       1.26360  -1.52801   0.23818 
C          C       1.32271  -1.37677   0.28515 
C          C       1.05337  -1.37544   0.19808 
C          C       1.23574  -1.55910   0.20247 
C          C       1.32248  -1.55931   0.27439 
C          C       1.05594  -1.29358   0.29809 
C          C       1.23929  -1.29434   0.18303 
C          C       1.26933  -1.26432   0.18154 
C          C       0.99594  -1.26346   0.30603 
C          C       1.35209  -1.61877   0.27476 
C          C       1.26532  -1.61859   0.20237 
C          C       0.99332  -1.34526   0.20525 
C          C       1.35272  -1.34670   0.28448 
C          C       1.50885  -1.10644   0.25596 
C          C       0.59756  -1.10710   0.27452 
C          C       1.45995  -1.08853   0.16020 
C          C       0.62907  -1.08945   0.36895 
C          C       1.42880  -1.11746   0.15546 
C          C       0.68920  -1.11833   0.37122 
C          C       1.44751  -1.16819   0.24037 
C          C       0.72076  -1.16870   0.28440 
C          C       1.49727  -1.18842   0.33141 
C          C       0.69064  -1.18925   0.19731 
C          C       1.52618  -1.15745   0.34077 
C          C       0.63073  -1.15834   0.19032 
H          H       1.44630  -1.05336   0.09227 
H          H       0.60781  -1.05430   0.43693 
H          H       1.39271  -1.10160   0.08835 
H          H       0.70971  -1.10269   0.43786 
H          H       1.51234  -1.22532   0.39363 
H          H       0.71213  -1.22651   0.13638 
H          H       1.56087  -1.17294   0.41148 
H          H       0.61121  -1.17402   0.12158 
C          C       1.45172  -0.98427   0.31465 
C          C       0.53446  -0.98562   0.20882 
C          C       1.42130  -0.92485   0.30350 
C          C       0.50574  -0.92615   0.21025 
H          H       1.43026  -1.00317   0.35992 
H          H       0.57545  -1.00543   0.16845 
H          H       1.37917  -0.90561   0.33426 
H          H       0.52964  -0.90792   0.18096 
C          C       1.41733  -1.19806   0.23627 
C          C       0.78086  -1.19787   0.28230 
C          C       1.36261  -1.17570   0.30601 
C          C       0.81137  -1.17362   0.21082 
C          C       1.33319  -1.20576   0.30579 
C          C       0.87154  -1.20363   0.20332 
C          C       1.35643  -1.25957   0.23387 
C          C       0.90330  -1.25857   0.26881 
C          C       1.41135  -1.28216   0.16333 
C          C       0.87214  -1.28160   0.34319 
C          C       1.44147  -1.25210   0.16536 
C          C       0.81267  -1.25230   0.34872 
H          H       0.78988  -0.13408   0.16191 
H          H       0.89212  -0.18515   0.14791 
H          H       1.42981  -1.32082   0.10890 
H          H       1.48121  -1.26988   0.11415 
C          C       0.43488  -0.79981   0.15300 
C          C       1.36480  -0.79957   0.33106 
C          C       0.40521  -0.74070   0.15202 
C          C       1.33390  -0.74004   0.32664 
H          H       1.34856  -0.81827   0.40375 
H          H       1.29702  -0.71917   0.39211 
N          N       0.53834  -1.07669   0.26510 
C          C       0.50922  -1.01768   0.26303 
C          C       0.44717  -0.89299   0.25174 
C          C       0.41657  -0.83235   0.24401 
C          C       0.35391  -0.70916   0.23809 
H          H       1.34319  -1.41772   0.32416 
H          H       1.07317  -1.41619   0.15758 
H          H       1.19329  -1.53850   0.17506 
H          H       1.34455  -1.53894   0.30195 
H          H       1.07767  -1.27367   0.33361 
H          H       1.19801  -1.27418   0.14445 
C          C       1.32646  -1.28991   0.23309 
C          C       0.96358  -1.28882   0.26003 
C          C       1.32405  -1.64942   0.23820 
H          H       1.39394  -1.36656   0.32347 
H          H       0.97130  -1.36490   0.16945 
H          H       1.24912  -1.22339   0.14182 
H          H       0.97602  -1.22282   0.34736 
H          H       1.24362  -1.63932   0.17467 
H          H       1.39455  -1.63976   0.30291 
N          N       0.48061  -0.81829   0.05683 
S          S       0.49148  -0.76802  -0.02571 
N          N       0.43067  -0.71907   0.06061 
N          N       0.33320  -0.12616   0.38148 
S          S       0.26999  -0.11467   0.45464 
N          N       0.28308  -0.17759   0.38278 
N          N       0.89345  -0.33157   0.41713 
S          S       0.84308  -0.34464   0.49256 
N          N       0.79197  -0.28177   0.42422 
