data_crystal
 
_cell_length_a    52.56300
_cell_length_b    52.55200
_cell_length_c    3.60000
_cell_angle_alpha 90.00000
_cell_angle_beta  90.00000
_cell_angle_gamma 119.97360
 
_symmetry_space_group_name_Hall 'P 1'
_symmetry_space_group_name_H-M  'P 1'
 
loop_
_symmetry_equiv_pos_as_xyz
 'x,y,z' 
 
loop_
_atom_site_label
_atom_site_type_symbol
_atom_site_fract_x
_atom_site_fract_y
_atom_site_fract_z
_atom_site_charge
C          C       0.52720   0.49992   1.39483   0.0000000000
C          C       0.52718   0.52727   1.40082   0.0000000000
C          C       0.55473   0.55401   1.40644   0.0000000000
C          C       0.58072   0.55330   1.40650   0.0000000000
C          C       0.58073   0.52741   1.39801   0.0000000000
C          C       0.55476   0.50073   1.39045   0.0000000000
O          O       0.60874   0.53110   1.39383   0.0000000000
B          B       0.62638   0.56319   1.40147   0.0000000000
O          O       0.60872   0.57763   1.40911   0.0000000000
C          C       0.50008   0.47279   1.39115   0.0000000000
C          C       0.47275   0.47280   1.37693   0.0000000000
C          C       0.49926   0.44523   1.40357   0.0000000000
C          C       0.47258   0.41925   1.39579   0.0000000000
C          C       0.44672   0.41926   1.37952   0.0000000000
C          C       0.44601   0.44524   1.37156   0.0000000000
O          O       0.42239   0.39125   1.37802   0.0000000000
B          B       0.43681   0.37359   1.39531   0.0000000000
O          O       0.46889   0.39124   1.40729   0.0000000000
C          C       0.50005   0.52726   1.39575   0.0000000000
C          C       0.47276   0.49995   1.37386   0.0000000000
C          C       0.44607   0.50081   1.35141   0.0000000000
C          C       0.44674   0.52748   1.36132   0.0000000000
C          C       0.47252   0.55330   1.39218   0.0000000000
C          C       0.49917   0.55397   1.40991   0.0000000000
O          O       0.46880   0.57760   1.40048   0.0000000000
B          B       0.43680   0.56323   1.36989   0.0000000000
O          O       0.42245   0.53120   1.34460   0.0000000000
H          H       0.55712   0.57555   1.40655   0.0000000000
H          H       0.55715   0.48160   1.37665   0.0000000000
H          H       0.51836   0.44285   1.42383   0.0000000000
H          H       0.42448   0.44286   1.36570   0.0000000000
H          H       0.42464   0.48173   1.32458   0.0000000000
H          H       0.51822   0.57543   1.43602   0.0000000000
C          C       0.13942   0.83343   1.40380   0.0000000000
C          C       0.13944   0.80609   1.39183   0.0000000000
C          C       0.11189   0.77934   1.38893   0.0000000000
C          C       0.08590   0.78004   1.39799   0.0000000000
C          C       0.08589   0.80592   1.40650   0.0000000000
C          C       0.11186   0.83262   1.40793   0.0000000000
O          O       0.05788   0.80224   1.40910   0.0000000000
B          B       0.04024   0.77015   1.40146   0.0000000000
O          O       0.05790   0.75571   1.39382   0.0000000000
C          C       0.16654   0.86055   1.40902   0.0000000000
C          C       0.19387   0.86060   1.38584   0.0000000000
C          C       0.16736   0.88805   1.43925   0.0000000000
C          C       0.19404   0.91404   1.43977   0.0000000000
C          C       0.21991   0.91410   1.41502   0.0000000000
C          C       0.22061   0.88816   1.38978   0.0000000000
O          O       0.24423   0.94209   1.42392   0.0000000000
B          B       0.22981   0.95967   1.45751   0.0000000000
O          O       0.19773   0.94199   1.46842   0.0000000000
C          C       0.16657   0.80612   1.37786   0.0000000000
C          C       0.19387   0.83349   1.36496   0.0000000000
C          C       0.22055   0.83271   1.33321   0.0000000000
C          C       0.21988   0.80604   1.32583   0.0000000000
C          C       0.19410   0.78014   1.34818   0.0000000000
C          C       0.16745   0.77940   1.37419   0.0000000000
O          O       0.19783   0.75583   1.33929   0.0000000000
B          B       0.22982   0.77030   1.30766   0.0000000000
O          O       0.24417   0.80238   1.29871   0.0000000000
H          H       0.10950   0.75782   1.37569   0.0000000000
H          H       0.10947   0.85177   1.40749   0.0000000000
H          H       0.14826   0.89035   1.46732   0.0000000000
H          H       0.24214   0.89057   1.37842   0.0000000000
H          H       0.24198   0.85186   1.31190   0.0000000000
H          H       0.14840   0.75787   1.39244   0.0000000000
C          C       0.84890   0.67446   1.40147   0.0000000000
C          C       0.84887   0.71989   1.41638   0.0000000000
C          C       0.84892   0.62904   1.38655   0.0000000000
C          C       0.86443   0.70495   1.40892   0.0000000000
C          C       0.89539   0.72043   1.40892   0.0000000000
C          C       0.86445   0.65952   1.39401   0.0000000000
C          C       0.89541   0.67501   1.39401   0.0000000000
C          C       0.94377   0.72191   1.40146   0.0000000000
C          C       0.96036   0.75292   1.40892   0.0000000000
C          C       0.99116   0.76832   1.40892   0.0000000000
C          C       0.96039   0.70750   1.39401   0.0000000000
C          C       0.99118   0.72290   1.39400   0.0000000000
C          C       0.00711   0.75358   1.40146   0.0000000000
O          O       0.90842   0.74789   1.41580   0.0000000000
O          O       0.90847   0.66059   1.38713   0.0000000000
N          N       0.91115   0.70560   1.40146   0.0000000000
H          H       0.86080   0.74376   1.42226   0.0000000000
H          H       0.94927   0.76569   1.41493   0.0000000000
H          H       0.00309   0.79220   1.41480   0.0000000000
H          H       0.86086   0.61710   1.38067   0.0000000000
H          H       0.94931   0.68365   1.38799   0.0000000000
H          H       0.00313   0.71096   1.38813   0.0000000000
C          C       0.81772   0.65887   1.40147   0.0000000000
C          C       0.81775   0.61345   1.38655   0.0000000000
C          C       0.81770   0.70430   1.41638   0.0000000000
C          C       0.80220   0.62839   1.39401   0.0000000000
C          C       0.77123   0.61291   1.39401   0.0000000000
C          C       0.80217   0.67381   1.40892   0.0000000000
C          C       0.77121   0.65833   1.40892   0.0000000000
C          C       0.72285   0.61143   1.40147   0.0000000000
C          C       0.70626   0.58042   1.39401   0.0000000000
C          C       0.67546   0.56502   1.39401   0.0000000000
C          C       0.70623   0.62584   1.40893   0.0000000000
C          C       0.67544   0.61044   1.40893   0.0000000000
C          C       0.65951   0.57976   1.40147   0.0000000000
O          O       0.75820   0.58545   1.38713   0.0000000000
O          O       0.75815   0.67275   1.41580   0.0000000000
N          N       0.75547   0.62774   1.40147   0.0000000000
H          H       0.80582   0.58958   1.38067   0.0000000000
H          H       0.71735   0.56765   1.38800   0.0000000000
H          H       0.66353   0.54114   1.38813   0.0000000000
H          H       0.80576   0.71624   1.42226   0.0000000000
H          H       0.71731   0.64969   1.41494   0.0000000000
H          H       0.66349   0.62237   1.41481   0.0000000000
C          C       0.32552   0.67456   1.33643   0.0000000000
C          C       0.28027   0.62926   1.28188   0.0000000000
C          C       0.37076   0.71986   1.39098   0.0000000000
C          C       0.29512   0.65969   1.30682   0.0000000000
C          C       0.27964   0.67518   1.30217   0.0000000000
C          C       0.34036   0.70499   1.36137   0.0000000000
C          C       0.32488   0.72048   1.35671   0.0000000000
C          C       0.27807   0.72203   1.32217   0.0000000000
C          C       0.24715   0.70769   1.29240   0.0000000000
C          C       0.23174   0.72310   1.28777   0.0000000000
C          C       0.29239   0.75299   1.34694   0.0000000000
C          C       0.27698   0.76840   1.34231   0.0000000000
C          C       0.24639   0.75372   1.31264   0.0000000000
O          O       0.25226   0.66083   1.27506   0.0000000000
O          O       0.33921   0.74789   1.37990   0.0000000000
N          N       0.29438   0.70571   1.32707   0.0000000000
H          H       0.25647   0.61738   1.25859   0.0000000000
H          H       0.23445   0.68389   1.27208   0.0000000000
H          H       0.20794   0.71122   1.26447   0.0000000000
H          H       0.38262   0.74369   1.41069   0.0000000000
H          H       0.31617   0.76570   1.37060   0.0000000000
H          H       0.28885   0.79222   1.36202   0.0000000000
C          C       0.34111   0.65897   1.34112   0.0000000000
C          C       0.38635   0.70427   1.39567   0.0000000000
C          C       0.29586   0.61367   1.28657   0.0000000000
C          C       0.37150   0.67384   1.37073   0.0000000000
C          C       0.38698   0.65835   1.37538   0.0000000000
C          C       0.32626   0.62854   1.31618   0.0000000000
C          C       0.34174   0.61305   1.32084   0.0000000000
C          C       0.38855   0.61150   1.35538   0.0000000000
C          C       0.41948   0.62584   1.38515   0.0000000000
C          C       0.43488   0.61043   1.38978   0.0000000000
C          C       0.37424   0.58054   1.33061   0.0000000000
C          C       0.38964   0.56513   1.33524   0.0000000000
C          C       0.42023   0.57981   1.36491   0.0000000000
O          O       0.41436   0.67270   1.40249   0.0000000000
O          O       0.32741   0.58564   1.29765   0.0000000000
N          N       0.37224   0.62782   1.35048   0.0000000000
H          H       0.41015   0.71615   1.41896   0.0000000000
H          H       0.43217   0.64965   1.40547   0.0000000000
H          H       0.45868   0.62231   1.41308   0.0000000000
H          H       0.28400   0.58984   1.26686   0.0000000000
H          H       0.35046   0.56783   1.30695   0.0000000000
H          H       0.37777   0.54131   1.31553   0.0000000000
C          C       0.32552   0.15104   1.42875   0.0000000000
C          C       0.37091   0.15103   1.45732   0.0000000000
C          C       0.28012   0.15105   1.40018   0.0000000000
C          C       0.34044   0.13549   1.44537   0.0000000000
C          C       0.32495   0.10453   1.45002   0.0000000000
C          C       0.29505   0.13550   1.41680   0.0000000000
C          C       0.27956   0.10454   1.42145   0.0000000000
C          C       0.27806   0.05615   1.44301   0.0000000000
C          C       0.29245   0.03954   1.45979   0.0000000000
C          C       0.27705   0.00874   1.46442   0.0000000000
C          C       0.24706   0.03955   1.43122   0.0000000000
C          C       0.23166   0.00875   1.43585   0.0000000000
C          C       0.24638   0.99281   1.45253   0.0000000000
O          O       0.33935   0.09148   1.46516   0.0000000000
O          O       0.25211   0.09149   1.41024   0.0000000000
N          N       0.29438   0.08878   1.43811   0.0000000000
H          H       0.38283   0.13909   1.47038   0.0000000000
H          H       0.31629   0.05063   1.46964   0.0000000000
H          H       0.28897   0.99680   1.47747   0.0000000000
H          H       0.25626   0.13912   1.39071   0.0000000000
H          H       0.23431   0.05064   1.41804   0.0000000000
H          H       0.20780   0.99682   1.42638   0.0000000000
C          C       0.34111   0.18222   1.42406   0.0000000000
C          C       0.29571   0.18223   1.39549   0.0000000000
C          C       0.38650   0.18221   1.45264   0.0000000000
C          C       0.32619   0.19777   1.40744   0.0000000000
C          C       0.34167   0.22873   1.40279   0.0000000000
C          C       0.37157   0.19776   1.43601   0.0000000000
C          C       0.38706   0.22872   1.43136   0.0000000000
C          C       0.38856   0.27711   1.40981   0.0000000000
C          C       0.37417   0.29372   1.39303   0.0000000000
C          C       0.38957   0.32452   1.38840   0.0000000000
C          C       0.41956   0.29371   1.42160   0.0000000000
C          C       0.43496   0.32451   1.41697   0.0000000000
C          C       0.42024   0.34045   1.40029   0.0000000000
O          O       0.32727   0.24179   1.38766   0.0000000000
O          O       0.41451   0.24177   1.44257   0.0000000000
N          N       0.37225   0.24448   1.41471   0.0000000000
H          H       0.28379   0.19417   1.38244   0.0000000000
H          H       0.35033   0.28264   1.38317   0.0000000000
H          H       0.37765   0.33646   1.37534   0.0000000000
H          H       0.41036   0.19414   1.46211   0.0000000000
H          H       0.43231   0.28262   1.43478   0.0000000000
H          H       0.45882   0.33644   1.42644   0.0000000000
