data_crystal
 
_cell_length_a    21.93720
_cell_length_b    21.93720
_cell_length_c    6.80000
_cell_angle_alpha 90.00000
_cell_angle_beta  90.00000
_cell_angle_gamma 120.00000
 
_symmetry_space_group_name_Hall 'P 1'
_symmetry_space_group_name_H-M  'P 1'
 
loop_
_symmetry_equiv_pos_as_xyz
 'x,y,z' 
 
loop_
_atom_site_label
_atom_site_type_symbol
_atom_site_fract_x
_atom_site_fract_y
_atom_site_fract_z
O          O       0.54910   0.47202   0.73530 
O          O       0.42291   0.45090   0.73530 
O          O       0.52798   0.57709   0.73530 
B          B       0.57507   0.54782   0.73530 
B          B       0.47275   0.42493   0.73530 
B          B       0.45218   0.52725   0.73530 
O          O       0.11756   0.86131   0.73640 
O          O       0.24375   0.88244   0.73634 
O          O       0.13869   0.75625   0.73626 
B          B       0.09160   0.78551   0.73633 
B          B       0.19391   0.90840   0.73641 
B          B       0.21449   0.80608   0.73626 
C          C       0.77033   0.71333   0.73557 
C          C       0.65200   0.59684   0.73545 
S          S       0.71851   0.57189   0.73565 
C          C       0.79484   0.65834   0.73569 
C          C       0.68859   0.67811   0.73549 
C          C       0.01466   0.73650   0.73618 
S          S       0.94816   0.76144   0.73604 
C          C       0.87183   0.67498   0.73594 
C          C       0.89635   0.62000   0.73594 
C          C       0.97809   0.65523   0.73599 
H          H       0.65909   0.70874   0.73544 
H          H       0.00759   0.62461   0.73591 
H          H       0.80772   0.77264   0.73557 
H          H       0.85895   0.56066   0.73587 
C          C       0.28666   0.55700   0.73557 
C          C       0.40316   0.55517   0.73545 
S          S       0.42811   0.64662   0.73565 
C          C       0.34165   0.63649   0.73569 
C          C       0.32189   0.51048   0.73549 
C          C       0.26350   0.77817   0.73618 
S          S       0.23856   0.68671   0.73604 
C          C       0.32502   0.69685   0.73594 
C          C       0.38000   0.77635   0.73594 
C          C       0.34477   0.82286   0.73599 
H          H       0.29125   0.45035   0.73544 
H          H       0.37539   0.88298   0.73591 
H          H       0.22736   0.53508   0.73557 
H          H       0.43934   0.79829   0.73587 
C          C       0.44300   0.22967   0.73557 
C          C       0.44483   0.34799   0.73545 
S          S       0.35338   0.28149   0.73565 
C          C       0.36351   0.20516   0.73569 
C          C       0.48952   0.31141   0.73549 
C          C       0.22183   0.98533   0.73618 
S          S       0.31329   0.05184   0.73604 
C          C       0.30315   0.12817   0.73594 
C          C       0.22365   0.10365   0.73594 
C          C       0.17713   0.02191   0.73599 
H          H       0.54965   0.34091   0.73544 
H          H       0.11702   0.99241   0.73591 
H          H       0.46492   0.19228   0.73557 
H          H       0.20171   0.14105   0.73588 
O          O       0.54910   0.47202   1.23530 
O          O       0.42291   0.45090   1.23530 
O          O       0.52798   0.57709   1.23530 
B          B       0.57507   0.54782   1.23530 
B          B       0.47275   0.42493   1.23530 
B          B       0.45218   0.52725   1.23530 
O          O       0.11756   0.86131   1.23640 
O          O       0.24375   0.88244   1.23634 
O          O       0.13869   0.75625   1.23626 
B          B       0.09160   0.78551   1.23632 
B          B       0.19391   0.90840   1.23641 
B          B       0.21449   0.80608   1.23626 
C          C       0.77033   0.71333   1.23557 
C          C       0.65200   0.59684   1.23545 
S          S       0.71851   0.57189   1.23565 
C          C       0.79484   0.65834   1.23569 
C          C       0.68859   0.67811   1.23549 
C          C       0.01466   0.73650   1.23618 
S          S       0.94816   0.76144   1.23605 
C          C       0.87183   0.67498   1.23594 
C          C       0.89635   0.62000   1.23594 
C          C       0.97809   0.65523   1.23599 
H          H       0.65909   0.70874   1.23544 
H          H       0.00759   0.62461   1.23591 
H          H       0.80772   0.77264   1.23557 
H          H       0.85895   0.56066   1.23588 
C          C       0.28666   0.55700   1.23557 
C          C       0.40316   0.55517   1.23545 
S          S       0.42811   0.64662   1.23565 
C          C       0.34165   0.63649   1.23569 
C          C       0.32189   0.51048   1.23549 
C          C       0.26350   0.77817   1.23618 
S          S       0.23856   0.68671   1.23605 
C          C       0.32502   0.69685   1.23594 
C          C       0.38000   0.77635   1.23594 
C          C       0.34477   0.82286   1.23599 
H          H       0.29125   0.45035   1.23544 
H          H       0.37539   0.88298   1.23591 
H          H       0.22736   0.53508   1.23557 
H          H       0.43934   0.79829   1.23588 
C          C       0.44300   0.22967   1.23557 
C          C       0.44483   0.34799   1.23545 
S          S       0.35338   0.28149   1.23565 
C          C       0.36351   0.20516   1.23569 
C          C       0.48952   0.31141   1.23549 
C          C       0.22183   0.98533   1.23619 
S          S       0.31329   0.05184   1.23605 
C          C       0.30315   0.12817   1.23594 
C          C       0.22365   0.10365   1.23594 
C          C       0.17713   0.02191   1.23599 
H          H       0.54965   0.34091   1.23544 
H          H       0.11702   0.99241   1.23591 
H          H       0.46492   0.19228   1.23557 
H          H       0.20171   0.14105   1.23588 
