data_crystal
 
_cell_length_a    14.55840
_cell_length_b    14.55840
_cell_length_c    3.50000
_cell_angle_alpha 90.00000
_cell_angle_beta  90.00000
_cell_angle_gamma 120.00000
 
_symmetry_space_group_name_Hall 'P 1'
_symmetry_space_group_name_H-M  'P 1'
 
loop_
_symmetry_equiv_pos_as_xyz
 'x,y,z' 
 
loop_
_atom_site_label
_atom_site_type_symbol
_atom_site_fract_x
_atom_site_fract_y
_atom_site_fract_z
_atom_site_charge
O          O       0.70968   0.26473   0.50000   0.0000000000
O          O       0.73527   0.44495   0.50000   0.0000000000
O          O       0.55505   0.29032   0.50000   0.0000000000
O          O       0.26473   0.70968   0.50000   0.0000000000
O          O       0.44495   0.73527   0.50000   0.0000000000
O          O       0.29032   0.55505   0.50000   0.0000000000
B          B       0.78179   0.37775   0.50000   0.0000000000
B          B       0.62225   0.40404   0.50000   0.0000000000
B          B       0.59596   0.21821   0.50000   0.0000000000
B          B       0.37775   0.78179   0.50000   0.0000000000
B          B       0.40404   0.62225   0.50000   0.0000000000
B          B       0.21821   0.59596   0.50000   0.0000000000
C          C       0.89959   0.42032   0.50000   0.0000000000
C          C       0.57968   0.47927   0.50000   0.0000000000
C          C       0.47927   0.57968   0.50000   0.0000000000
C          C       0.52073   0.10041   0.50000   0.0000000000
C          C       0.42032   0.89959   0.50000   0.0000000000
C          C       0.10041   0.52073   0.50000   0.0000000000
S          S      -0.00000   0.55401   0.50000   0.0000000000
S          S       0.44599   0.44599   0.50000   0.0000000000
S          S       0.55401   0.00000   0.50000   0.0000000000
C          C       0.94475   0.35530   0.50000   0.0000000000
C          C       0.64470   0.58945   0.50000   0.0000000000
C          C       0.41055   0.05525   0.50000   0.0000000000
C          C       0.35530   0.94475   0.50000   0.0000000000
C          C       0.58945   0.64470   0.50000   0.0000000000
C          C       0.05525   0.41055   0.50000   0.0000000000
H          H       0.90063   0.27411   0.50000   0.0000000000
H          H       0.72589   0.62653   0.50000   0.0000000000
H          H       0.37347   0.09937   0.49999   0.0000000000
H          H       0.27411   0.90063   0.50000   0.0000000000
H          H       0.62653   0.72589   0.50000   0.0000000000
H          H       0.09937   0.37347   0.50000   0.0000000000
