data_crystal

_cell_length_a    14.55840
_cell_length_b    14.55840
_cell_length_c    7.00000
_cell_angle_alpha 90.00000
_cell_angle_beta  90.00000
_cell_angle_gamma 120.00000

_space_group_name_Hall 'P 1'
_space_group_name_H-M_alt  'P 1'

loop_
_symmetry_equiv_pos_as_xyz
'x,y,z' 

loop_
_atom_site_label
_atom_site_type_symbol
_atom_site_fract_x
_atom_site_fract_y
_atom_site_fract_z
O          O       0.70968   0.26473   0.25000 
O          O       0.73527   0.44495   0.25000 
O          O       0.55505   0.29032   0.25000 
O          O       0.26473   0.70968   0.25000 
O          O       0.44495   0.73527   0.25000 
O          O       0.29032   0.55505   0.25000 
B          B       0.78179   0.37775   0.25000 
B          B       0.62225   0.40404   0.25000 
B          B       0.59596   0.21821   0.25000 
B          B       0.37775   0.78179   0.25000 
B          B       0.40404   0.62225   0.25000 
B          B       0.21821   0.59596   0.25000 
C          C       0.89959   0.42032   0.25000 
C          C       0.57968   0.47927   0.25000 
C          C       0.47927   0.57968   0.25000 
C          C       0.52073   0.10041   0.25000 
C          C       0.42032   0.89959   0.25000 
C          C       0.10041   0.52073   0.25000 
S          S      -0.00000   0.55401   0.25000 
S          S       0.44599   0.44599   0.25000 
S          S       0.55401   0.00000   0.25000 
C          C       0.94475   0.35530   0.25000 
C          C       0.64470   0.58945   0.25000 
C          C       0.41055   0.05525   0.25000 
C          C       0.35530   0.94475   0.25000 
C          C       0.58945   0.64470   0.25000 
C          C       0.05525   0.41055   0.25000 
H          H       0.90063   0.27411   0.25000 
H          H       0.72589   0.62653   0.25000 
H          H       0.37347   0.09937   0.24999 
H          H       0.27411   0.90063   0.25000 
H          H       0.62653   0.72589   0.25000 
H          H       0.09937   0.37347   0.25000 
O          O       0.70968   0.26473   0.75000 
O          O       0.73527   0.44495   0.75000 
O          O       0.55505   0.29032   0.75000 
O          O       0.26473   0.70968   0.75000 
O          O       0.44495   0.73527   0.75000 
O          O       0.29032   0.55505   0.75000 
B          B       0.78179   0.37775   0.75000 
B          B       0.62225   0.40404   0.75000 
B          B       0.59596   0.21821   0.75000 
B          B       0.37775   0.78179   0.75000 
B          B       0.40404   0.62225   0.75000 
B          B       0.21821   0.59596   0.75000 
C          C       0.89959   0.42032   0.75000 
C          C       0.57968   0.47927   0.75000 
C          C       0.47927   0.57968   0.75000 
C          C       0.52073   0.10041   0.75000 
C          C       0.42032   0.89959   0.75000 
C          C       0.10041   0.52073   0.75000 
S          S      -0.00000   0.55401   0.75000 
S          S       0.44599   0.44599   0.75000 
S          S       0.55401   0.00000   0.75000 
C          C       0.94475   0.35530   0.75000 
C          C       0.64470   0.58945   0.75000 
C          C       0.41055   0.05525   0.75000 
C          C       0.35530   0.94475   0.75000 
C          C       0.58945   0.64470   0.75000 
C          C       0.05525   0.41055   0.75000 
H          H       0.90063   0.27411   0.75000 
H          H       0.72589   0.62653   0.75000 
H          H       0.37347   0.09937   0.74999 
H          H       0.27411   0.90063   0.75000 
H          H       0.62653   0.72589   0.75000 
H          H       0.09937   0.37347   0.75000 
