data_crystal
 
_cell_length_a    18.81260
_cell_length_b    18.81260
_cell_length_c    6.80000
_cell_angle_alpha 90.00000
_cell_angle_beta  90.00000
_cell_angle_gamma 120.00000
 
_space_group_name_Hall 'P 1'
_space_group_name_H-M_alt  'P 1'
 
loop_
_symmetry_equiv_pos_as_xyz
 'x,y,z' 
 
loop_
_atom_site_label
_atom_site_type_symbol
_atom_site_fract_x
_atom_site_fract_y
_atom_site_fract_z
O          O       0.54733   0.45635   0.73530 
O          O       0.40902   0.45267   0.73530 
O          O       0.54365   0.59098   0.73530 
B          B       0.58860   0.54609   0.73530 
B          B       0.45749   0.41140   0.73530 
B          B       0.45391   0.54251   0.73530 
O          O       0.11934   0.87699   0.73513 
O          O       0.25765   0.88066   0.73528 
O          O       0.12301   0.74235   0.73521 
B          B       0.07806   0.78724   0.73513 
B          B       0.20918   0.92193   0.73521 
B          B       0.21276   0.79082   0.73528 
C          C       0.98727   0.74013   0.73513 
C          C       0.67939   0.59320   0.73523 
S          S       0.92476   0.62890   0.73520 
S          S       0.74190   0.70443   0.73513 
C          C       0.82715   0.62380   0.73513 
C          C       0.83951   0.70953   0.73509 
C          C       0.93051   0.77859   0.73512 
C          C       0.73616   0.55474   0.73520 
H          H       0.95273   0.84716   0.73515 
H          H       0.71393   0.48616   0.73525 
C          C       0.25987   0.74715   0.73513 
C          C       0.40679   0.58619   0.73523 
S          S       0.37110   0.79586   0.73520 
S          S       0.29557   0.53747   0.73513 
C          C       0.37620   0.70335   0.73513 
C          C       0.29047   0.62998   0.73509 
C          C       0.22141   0.65192   0.73512 
C          C       0.44526   0.68142   0.73520 
H          H       0.15284   0.60557   0.73515 
H          H       0.51384   0.72777   0.73525 
C          C       0.25285   0.01273   0.73513 
C          C       0.41381   0.32061   0.73523 
S          S       0.20414   0.07524   0.73520 
S          S       0.46253   0.25809   0.73513 
C          C       0.29665   0.17285   0.73513 
C          C       0.37001   0.16049   0.73509 
C          C       0.34808   0.06949   0.73512 
C          C       0.31858   0.26384   0.73521 
H          H       0.39443   0.04727   0.73515 
H          H       0.27223   0.28607   0.73525 
O          O       0.54733   0.45635   1.23530 
O          O       0.40902   0.45267   1.23530 
O          O       0.54365   0.59098   1.23530 
B          B       0.58860   0.54609   1.23530 
B          B       0.45749   0.41140   1.23530 
B          B       0.45391   0.54251   1.23530 
O          O       0.11934   0.87699   1.23514 
O          O       0.25765   0.88066   1.23528 
O          O       0.12301   0.74235   1.23521 
B          B       0.07806   0.78724   1.23514 
B          B       0.20918   0.92193   1.23521 
B          B       0.21276   0.79082   1.23528 
C          C       0.98727   0.74013   1.23514 
C          C       0.67939   0.59320   1.23523 
S          S       0.92476   0.62890   1.23520 
S          S       0.74190   0.70443   1.23513 
C          C       0.82715   0.62380   1.23513 
C          C       0.83951   0.70953   1.23509 
C          C       0.93051   0.77859   1.23512 
C          C       0.73616   0.55474   1.23520 
H          H       0.95273   0.84716   1.23515 
H          H       0.71393   0.48616   1.23526 
C          C       0.25987   0.74715   1.23514 
C          C       0.40679   0.58619   1.23523 
S          S       0.37110   0.79586   1.23520 
S          S       0.29557   0.53747   1.23513 
C          C       0.37620   0.70335   1.23513 
C          C       0.29047   0.62998   1.23509 
C          C       0.22141   0.65192   1.23512 
C          C       0.44526   0.68142   1.23520 
H          H       0.15284   0.60557   1.23515 
H          H       0.51384   0.72777   1.23526 
C          C       0.25285   0.01273   1.23514 
C          C       0.41381   0.32061   1.23523 
S          S       0.20414   0.07524   1.23520 
S          S       0.46253   0.25809   1.23513 
C          C       0.29665   0.17285   1.23513 
C          C       0.37001   0.16049   1.23509 
C          C       0.34808   0.06949   1.23512 
C          C       0.31858   0.26384   1.23521 
H          H       0.39443   0.04727   1.23515 
H          H       0.27223   0.28607   1.23526 
