data_crystal

_cell_length_a    38.79590
_cell_length_b    33.00680
_cell_length_c    13.53000
_cell_angle_alpha 90.00000
_cell_angle_beta  90.00000
_cell_angle_gamma 90.00000

_space_group_name_Hall 'P 1'
_space_group_name_H-M_alt  'P 1'

loop_
_symmetry_equiv_pos_as_xyz
'x,y,z' 

loop_
_atom_site_label
_atom_site_type_symbol
_atom_site_fract_x
_atom_site_fract_y
_atom_site_fract_z
C          C       0.27547   0.71855   0.25000 
C          C       0.77547   0.21855   0.25000 
C          C       0.72454   0.28145   0.25000 
C          C       0.22453   0.78145   0.25000 
C          C       0.72454   0.71855   0.25000 
C          C       0.22453   0.21855   0.25000 
C          C       0.27547   0.28145   0.25000 
C          C       0.77547   0.78145   0.25000 
C          C       0.21486   0.74011   0.25000 
C          C       0.71486   0.24011   0.25000 
C          C       0.78514   0.25989   0.25000 
C          C       0.28514   0.75989   0.25000 
C          C       0.78514   0.74011   0.25000 
C          C       0.28514   0.24011   0.25000 
C          C       0.21486   0.25989   0.25000 
C          C       0.71486   0.75989   0.25000 
C          C       0.23988   0.70920   0.25000 
C          C       0.73988   0.20920   0.25000 
C          C       0.76012   0.29080   0.25000 
C          C       0.26012   0.79080   0.25000 
C          C       0.76012   0.70920   0.25000 
C          C       0.26012   0.20920   0.25000 
C          C       0.23988   0.29080   0.25000 
C          C       0.73988   0.79080   0.25000 
C          C       0.97128   0.91267   0.25000 
C          C       0.47128   0.41267   0.25000 
C          C       0.02872   0.08733   0.25000 
C          C       0.52872   0.58733   0.25000 
C          C       0.02872   0.91267   0.25000 
C          C       0.52872   0.41267   0.25000 
C          C       0.97128   0.08733   0.25000 
C          C       0.47128   0.58733   0.25000 
C          C       0.98227   0.87238   0.25000 
C          C       0.48227   0.37239   0.25000 
C          C       0.01773   0.12761   0.25000 
C          C       0.51773   0.62761   0.25000 
C          C       0.01773   0.87238   0.25000 
C          C       0.51773   0.37239   0.25000 
C          C       0.98227   0.12761   0.25000 
C          C       0.48227   0.62761   0.25000 
H          H       0.96712   0.84705   0.25000 
H          H       0.46712   0.34705   0.25000 
H          H       0.03289   0.15295   0.25000 
H          H       0.53289   0.65295   0.25000 
H          H       0.03289   0.84705   0.25000 
H          H       0.53289   0.34705   0.25000 
H          H       0.96712   0.15295   0.25000 
H          H       0.46712   0.65295   0.25000 
N          N       0.44554   0.50000   0.25000 
N          N       0.94554   0.00000   0.25000 
N          N       0.55446   0.50000   0.25000 
N          N       0.05446   0.00000   0.25000 
C          C       0.42571   0.46625   0.25000 
C          C       0.92571   0.96625   0.25000 
C          C       0.57429   0.53375   0.25000 
C          C       0.07429   0.03375   0.25000 
C          C       0.57429   0.46625   0.25000 
C          C       0.07429   0.96625   0.25000 
C          C       0.42571   0.53375   0.25000 
C          C       0.92571   0.03375   0.25000 
C          C       0.39143   0.47916   0.25000 
C          C       0.89143   0.97916   0.25000 
C          C       0.60857   0.52084   0.25000 
C          C       0.10857   0.02084   0.25000 
C          C       0.60857   0.47916   0.25000 
C          C       0.10857   0.97916   0.25000 
C          C       0.39143   0.52084   0.25000 
C          C       0.89143   0.02084   0.25000 
H          H       0.36988   0.46136   0.25000 
H          H       0.86988   0.96135   0.25000 
H          H       0.63012   0.53864   0.25000 
H          H       0.13012   0.03864   0.25000 
H          H       0.63012   0.46136   0.25000 
H          H       0.13012   0.96135   0.25000 
H          H       0.36988   0.53864   0.25000 
H          H       0.86988   0.03864   0.25000 
C          C       0.93642   0.92527   0.25000 
C          C       0.43642   0.42527   0.25000 
C          C       0.06358   0.07473   0.25000 
C          C       0.56358   0.57473   0.25000 
C          C       0.06358   0.92527   0.25000 
C          C       0.56358   0.42527   0.25000 
C          C       0.93642   0.07473   0.25000 
C          C       0.43642   0.57473   0.25000 
C          C       0.91066   0.89499   0.25000 
C          C       0.41066   0.39499   0.25000 
C          C       0.08934   0.10501   0.25000 
C          C       0.58934   0.60501   0.25000 
C          C       0.08934   0.89499   0.25000 
C          C       0.58934   0.39499   0.25000 
C          C       0.91066   0.10501   0.25000 
C          C       0.41066   0.60501   0.25000 
C          C       0.39767   0.37969   0.34014 
C          C       0.89767   0.87969   0.34014 
C          C       0.60234   0.62031   0.34014 
C          C       0.10233   0.12031   0.34014 
C          C       0.60234   0.37969   0.15986 
C          C       0.10233   0.87969   0.15986 
C          C       0.39767   0.62031   0.15986 
C          C       0.89767   0.12031   0.15986 
C          C       0.60234   0.62031   0.15986 
C          C       0.10233   0.12031   0.15986 
C          C       0.39767   0.37969   0.15986 
C          C       0.89767   0.87969   0.15986 
C          C       0.39767   0.62031   0.34014 
C          C       0.89767   0.12031   0.34014 
C          C       0.60234   0.37969   0.34014 
C          C       0.10233   0.87969   0.34014 
H          H       0.90684   0.89037   0.40609 
H          H       0.40684   0.39037   0.40609 
H          H       0.09316   0.10963   0.40609 
H          H       0.59316   0.60963   0.40609 
H          H       0.09316   0.89037   0.09391 
H          H       0.59316   0.39037   0.09391 
H          H       0.90684   0.10963   0.09391 
H          H       0.40684   0.60963   0.09391 
H          H       0.09316   0.10963   0.09391 
H          H       0.59316   0.60963   0.09391 
H          H       0.90684   0.89037   0.09391 
H          H       0.40684   0.39037   0.09391 
H          H       0.90684   0.10963   0.40609 
H          H       0.40684   0.60963   0.40609 
H          H       0.09316   0.89037   0.40609 
H          H       0.59316   0.39037   0.40609 
C          C       0.87198   0.84954   0.33995 
C          C       0.37198   0.34954   0.33995 
C          C       0.12802   0.15046   0.33995 
C          C       0.62802   0.65046   0.33995 
C          C       0.12802   0.84954   0.16005 
C          C       0.62802   0.34954   0.16005 
C          C       0.87198   0.15046   0.16005 
C          C       0.37198   0.65046   0.16005 
C          C       0.12802   0.15046   0.16005 
C          C       0.62802   0.65046   0.16005 
C          C       0.87198   0.84954   0.16005 
C          C       0.37198   0.34954   0.16005 
C          C       0.87198   0.15046   0.33995 
C          C       0.37198   0.65046   0.33995 
C          C       0.12802   0.84954   0.33995 
C          C       0.62802   0.34954   0.33995 
H          H       0.86270   0.83848   0.40525 
H          H       0.36270   0.33848   0.40525 
H          H       0.13730   0.16152   0.40525 
H          H       0.63730   0.66152   0.40525 
H          H       0.13730   0.83848   0.09476 
H          H       0.63730   0.33848   0.09476 
H          H       0.86270   0.16152   0.09476 
H          H       0.36270   0.66152   0.09476 
H          H       0.13730   0.16152   0.09476 
H          H       0.63730   0.66152   0.09476 
H          H       0.86270   0.83848   0.09476 
H          H       0.36270   0.33848   0.09476 
H          H       0.86270   0.16152   0.40525 
H          H       0.36270   0.66152   0.40525 
H          H       0.13730   0.83848   0.40525 
H          H       0.63730   0.33848   0.40525 
C          C       0.85896   0.83450   0.25000 
C          C       0.35896   0.33450   0.25000 
C          C       0.14104   0.16550   0.25000 
C          C       0.64104   0.66550   0.25000 
C          C       0.14104   0.83450   0.25000 
C          C       0.64104   0.33450   0.25000 
C          C       0.85896   0.16550   0.25000 
C          C       0.35896   0.66550   0.25000 
H          H       0.18937   0.73212   0.25000 
H          H       0.68937   0.23212   0.25000 
H          H       0.81063   0.26788   0.25000 
H          H       0.31063   0.76788   0.25000 
H          H       0.81063   0.73212   0.25000 
H          H       0.31063   0.23212   0.25000 
H          H       0.18937   0.26788   0.25000 
H          H       0.68937   0.76788   0.25000 
Cu         Cu      0.50000   0.50000   0.25000 
Cu         Cu      0.00000   0.00000   0.25000 
C          C       0.30006   0.68709   0.25000 
H          H       0.29169   0.65760   0.25000 
C          C       0.80006   0.18709   0.25000 
H          H       0.79169   0.15760   0.25000 
C          C       0.69994   0.31291   0.25000 
H          H       0.70831   0.34240   0.25000 
C          C       0.19994   0.81291   0.25000 
H          H       0.20831   0.84240   0.25000 
C          C       0.69994   0.68709   0.25000 
H          H       0.70831   0.65760   0.25000 
C          C       0.19994   0.18709   0.25000 
H          H       0.20831   0.15760   0.25000 
C          C       0.30006   0.31291   0.25000 
H          H       0.29169   0.34240   0.25000 
C          C       0.80006   0.81291   0.25000 
H          H       0.79169   0.84240   0.25000 
H          H       0.23175   0.67968   0.25000 
H          H       0.73175   0.17968   0.25000 
H          H       0.76825   0.32032   0.25000 
H          H       0.26825   0.82032   0.25000 
H          H       0.76825   0.67968   0.25000 
H          H       0.26825   0.17968   0.25000 
H          H       0.23175   0.32032   0.25000 
H          H       0.73175   0.82032   0.25000 
N          N       0.33438   0.69439   0.25000 
N          N       0.83438   0.19439   0.25000 
N          N       0.66562   0.30561   0.25000 
N          N       0.16562   0.80561   0.25000 
N          N       0.66562   0.69439   0.25000 
N          N       0.16562   0.19439   0.25000 
N          N       0.33438   0.30561   0.25000 
N          N       0.83438   0.80561   0.25000 
N          N       0.00000   0.93598   0.25000 
N          N       0.50000   0.43598   0.25000 
N          N       0.00000   0.06402   0.25000 
N          N       0.50000   0.56402   0.25000 
C          C       0.27547   0.71855   0.75000 
C          C       0.77547   0.21855   0.75000 
C          C       0.72454   0.28145   0.75000 
C          C       0.22453   0.78145   0.75000 
C          C       0.72454   0.71855   0.75000 
C          C       0.22453   0.21855   0.75000 
C          C       0.27547   0.28145   0.75000 
C          C       0.77547   0.78145   0.75000 
C          C       0.21486   0.74011   0.75000 
C          C       0.71486   0.24011   0.75000 
C          C       0.78514   0.25989   0.75000 
C          C       0.28514   0.75989   0.75000 
C          C       0.78514   0.74011   0.75000 
C          C       0.28514   0.24011   0.75000 
C          C       0.21486   0.25989   0.75000 
C          C       0.71486   0.75989   0.75000 
C          C       0.23988   0.70920   0.75000 
C          C       0.73988   0.20920   0.75000 
C          C       0.76012   0.29080   0.75000 
C          C       0.26012   0.79080   0.75000 
C          C       0.76012   0.70920   0.75000 
C          C       0.26012   0.20920   0.75000 
C          C       0.23988   0.29080   0.75000 
C          C       0.73988   0.79080   0.75000 
C          C       0.97128   0.91267   0.75000 
C          C       0.47128   0.41267   0.75000 
C          C       0.02872   0.08733   0.75000 
C          C       0.52872   0.58733   0.75000 
C          C       0.02872   0.91267   0.75000 
C          C       0.52872   0.41267   0.75000 
C          C       0.97128   0.08733   0.75000 
C          C       0.47128   0.58733   0.75000 
C          C       0.98227   0.87238   0.75000 
C          C       0.48227   0.37239   0.75000 
C          C       0.01773   0.12761   0.75000 
C          C       0.51773   0.62761   0.75000 
C          C       0.01773   0.87238   0.75000 
C          C       0.51773   0.37239   0.75000 
C          C       0.98227   0.12761   0.75000 
C          C       0.48227   0.62761   0.75000 
H          H       0.96712   0.84705   0.75000 
H          H       0.46712   0.34705   0.75000 
H          H       0.03289   0.15295   0.75000 
H          H       0.53289   0.65295   0.75000 
H          H       0.03289   0.84705   0.75000 
H          H       0.53289   0.34705   0.75000 
H          H       0.96712   0.15295   0.75000 
H          H       0.46712   0.65295   0.75000 
N          N       0.44554   0.50000   0.75000 
N          N       0.94554   0.00000   0.75000 
N          N       0.55446   0.50000   0.75000 
N          N       0.05446   0.00000   0.75000 
C          C       0.42571   0.46625   0.75000 
C          C       0.92571   0.96625   0.75000 
C          C       0.57429   0.53375   0.75000 
C          C       0.07429   0.03375   0.75000 
C          C       0.57429   0.46625   0.75000 
C          C       0.07429   0.96625   0.75000 
C          C       0.42571   0.53375   0.75000 
C          C       0.92571   0.03375   0.75000 
C          C       0.39143   0.47916   0.75000 
C          C       0.89143   0.97916   0.75000 
C          C       0.60857   0.52084   0.75000 
C          C       0.10857   0.02084   0.75000 
C          C       0.60857   0.47916   0.75000 
C          C       0.10857   0.97916   0.75000 
C          C       0.39143   0.52084   0.75000 
C          C       0.89143   0.02084   0.75000 
H          H       0.36988   0.46136   0.75000 
H          H       0.86988   0.96135   0.75000 
H          H       0.63012   0.53864   0.75000 
H          H       0.13012   0.03864   0.75000 
H          H       0.63012   0.46136   0.75000 
H          H       0.13012   0.96135   0.75000 
H          H       0.36988   0.53864   0.75000 
H          H       0.86988   0.03864   0.75000 
C          C       0.93642   0.92527   0.75000 
C          C       0.43642   0.42527   0.75000 
C          C       0.06358   0.07473   0.75000 
C          C       0.56358   0.57473   0.75000 
C          C       0.06358   0.92527   0.75000 
C          C       0.56358   0.42527   0.75000 
C          C       0.93642   0.07473   0.75000 
C          C       0.43642   0.57473   0.75000 
C          C       0.91066   0.89499   0.75000 
C          C       0.41066   0.39499   0.75000 
C          C       0.08934   0.10501   0.75000 
C          C       0.58934   0.60501   0.75000 
C          C       0.08934   0.89499   0.75000 
C          C       0.58934   0.39499   0.75000 
C          C       0.91066   0.10501   0.75000 
C          C       0.41066   0.60501   0.75000 
C          C       0.39767   0.37969   0.84014 
C          C       0.89767   0.87969   0.84014 
C          C       0.60234   0.62031   0.84014 
C          C       0.10233   0.12031   0.84014 
C          C       0.60234   0.37969   0.65986 
C          C       0.10233   0.87969   0.65986 
C          C       0.39767   0.62031   0.65986 
C          C       0.89767   0.12031   0.65986 
C          C       0.60234   0.62031   0.65986 
C          C       0.10233   0.12031   0.65986 
C          C       0.39767   0.37969   0.65986 
C          C       0.89767   0.87969   0.65986 
C          C       0.39767   0.62031   0.84014 
C          C       0.89767   0.12031   0.84014 
C          C       0.60234   0.37969   0.84014 
C          C       0.10233   0.87969   0.84014 
H          H       0.90684   0.89037   0.90609 
H          H       0.40684   0.39037   0.90609 
H          H       0.09316   0.10963   0.90609 
H          H       0.59316   0.60963   0.90609 
H          H       0.09316   0.89037   0.59391 
H          H       0.59316   0.39037   0.59391 
H          H       0.90684   0.10963   0.59391 
H          H       0.40684   0.60963   0.59391 
H          H       0.09316   0.10963   0.59391 
H          H       0.59316   0.60963   0.59391 
H          H       0.90684   0.89037   0.59391 
H          H       0.40684   0.39037   0.59391 
H          H       0.90684   0.10963   0.90609 
H          H       0.40684   0.60963   0.90609 
H          H       0.09316   0.89037   0.90609 
H          H       0.59316   0.39037   0.90609 
C          C       0.87198   0.84954   0.83995 
C          C       0.37198   0.34954   0.83995 
C          C       0.12802   0.15046   0.83995 
C          C       0.62802   0.65046   0.83995 
C          C       0.12802   0.84954   0.66005 
C          C       0.62802   0.34954   0.66005 
C          C       0.87198   0.15046   0.66005 
C          C       0.37198   0.65046   0.66005 
C          C       0.12802   0.15046   0.66005 
C          C       0.62802   0.65046   0.66005 
C          C       0.87198   0.84954   0.66005 
C          C       0.37198   0.34954   0.66005 
C          C       0.87198   0.15046   0.83995 
C          C       0.37198   0.65046   0.83995 
C          C       0.12802   0.84954   0.83995 
C          C       0.62802   0.34954   0.83995 
H          H       0.86270   0.83848   0.90524 
H          H       0.36270   0.33848   0.90524 
H          H       0.13730   0.16152   0.90524 
H          H       0.63730   0.66152   0.90524 
H          H       0.13730   0.83848   0.59475 
H          H       0.63730   0.33848   0.59475 
H          H       0.86270   0.16152   0.59475 
H          H       0.36270   0.66152   0.59475 
H          H       0.13730   0.16152   0.59475 
H          H       0.63730   0.66152   0.59475 
H          H       0.86270   0.83848   0.59475 
H          H       0.36270   0.33848   0.59475 
H          H       0.86270   0.16152   0.90524 
H          H       0.36270   0.66152   0.90524 
H          H       0.13730   0.83848   0.90524 
H          H       0.63730   0.33848   0.90524 
C          C       0.85896   0.83450   0.75000 
C          C       0.35896   0.33450   0.75000 
C          C       0.14104   0.16550   0.75000 
C          C       0.64104   0.66550   0.75000 
C          C       0.14104   0.83450   0.75000 
C          C       0.64104   0.33450   0.75000 
C          C       0.85896   0.16550   0.75000 
C          C       0.35896   0.66550   0.75000 
H          H       0.18937   0.73212   0.75000 
H          H       0.68937   0.23212   0.75000 
H          H       0.81063   0.26788   0.75000 
H          H       0.31063   0.76788   0.75000 
H          H       0.81063   0.73212   0.75000 
H          H       0.31063   0.23212   0.75000 
H          H       0.18937   0.26788   0.75000 
H          H       0.68937   0.76788   0.75000 
Cu         Cu      0.50000   0.50000   0.75000 
Cu         Cu      0.00000   0.00000   0.75000 
C          C       0.30006   0.68709   0.75000 
H          H       0.29169   0.65760   0.75000 
C          C       0.80006   0.18709   0.75000 
H          H       0.79169   0.15760   0.75000 
C          C       0.69994   0.31291   0.75000 
H          H       0.70831   0.34240   0.75000 
C          C       0.19994   0.81291   0.75000 
H          H       0.20831   0.84240   0.75000 
C          C       0.69994   0.68709   0.75000 
H          H       0.70831   0.65760   0.75000 
C          C       0.19994   0.18709   0.75000 
H          H       0.20831   0.15760   0.75000 
C          C       0.30006   0.31291   0.75000 
H          H       0.29169   0.34240   0.75000 
C          C       0.80006   0.81291   0.75000 
H          H       0.79169   0.84240   0.75000 
H          H       0.23175   0.67968   0.75000 
H          H       0.73175   0.17968   0.75000 
H          H       0.76825   0.32032   0.75000 
H          H       0.26825   0.82032   0.75000 
H          H       0.76825   0.67968   0.75000 
H          H       0.26825   0.17968   0.75000 
H          H       0.23175   0.32032   0.75000 
H          H       0.73175   0.82032   0.75000 
N          N       0.33438   0.69439   0.75000 
N          N       0.83438   0.19439   0.75000 
N          N       0.66562   0.30561   0.75000 
N          N       0.16562   0.80561   0.75000 
N          N       0.66562   0.69439   0.75000 
N          N       0.16562   0.19439   0.75000 
N          N       0.33438   0.30561   0.75000 
N          N       0.83438   0.80561   0.75000 
N          N       0.00000   0.93598   0.75000 
N          N       0.50000   0.43598   0.75000 
N          N       0.00000   0.06402   0.75000 
N          N       0.50000   0.56402   0.75000 
