data_crystal

_cell_length_a    38.78320
_cell_length_b    33.35740
_cell_length_c    13.88520
_cell_angle_alpha 90.00000
_cell_angle_beta  90.00000
_cell_angle_gamma 90.00000

_space_group_name_Hall 'P 1'
_space_group_name_H-M_alt  'P 1'

loop_
_symmetry_equiv_pos_as_xyz
'x,y,z' 

loop_
_atom_site_label
_atom_site_type_symbol
_atom_site_fract_x
_atom_site_fract_y
_atom_site_fract_z
C          C       0.27606   0.71886   0.25000 
C          C       0.77606   0.21886   0.25000 
C          C       0.72394   0.28114   0.25000 
C          C       0.22394   0.78114   0.25000 
C          C       0.72394   0.71886   0.25000 
C          C       0.22394   0.21886   0.25000 
C          C       0.27606   0.28114   0.25000 
C          C       0.77606   0.78114   0.25000 
C          C       0.21471   0.74004   0.25000 
C          C       0.71471   0.24004   0.25000 
C          C       0.78529   0.25996   0.25000 
C          C       0.28529   0.75996   0.25000 
C          C       0.78529   0.74004   0.25000 
C          C       0.28529   0.24004   0.25000 
C          C       0.21471   0.25996   0.25000 
C          C       0.71471   0.75996   0.25000 
C          C       0.24044   0.70955   0.25000 
C          C       0.74044   0.20955   0.25000 
C          C       0.75956   0.29045   0.25000 
C          C       0.25956   0.79045   0.25000 
C          C       0.75956   0.70955   0.25000 
C          C       0.25956   0.20955   0.25000 
C          C       0.24044   0.29045   0.25000 
C          C       0.74044   0.79045   0.25000 
C          C       0.97127   0.91357   0.25000 
C          C       0.47127   0.41357   0.25000 
C          C       0.02873   0.08643   0.25000 
C          C       0.52873   0.58643   0.25000 
C          C       0.02873   0.91357   0.25000 
C          C       0.52873   0.41357   0.25000 
C          C       0.97127   0.08643   0.25000 
C          C       0.47127   0.58643   0.25000 
C          C       0.98226   0.87371   0.25000 
C          C       0.48226   0.37371   0.25000 
C          C       0.01774   0.12629   0.25000 
C          C       0.51774   0.62629   0.25000 
C          C       0.01774   0.87371   0.25000 
C          C       0.51774   0.37371   0.25000 
C          C       0.98226   0.12629   0.25000 
C          C       0.48226   0.62629   0.25000 
H          H       0.96710   0.84861   0.25000 
H          H       0.46710   0.34861   0.25000 
H          H       0.03291   0.15139   0.25000 
H          H       0.53291   0.65139   0.25000 
H          H       0.03291   0.84861   0.25000 
H          H       0.53291   0.34861   0.25000 
H          H       0.96710   0.15139   0.25000 
H          H       0.46710   0.65139   0.25000 
N          N       0.44549   0.50000   0.25000 
N          N       0.94549  -0.00000   0.25000 
N          N       0.55451   0.50000   0.25000 
N          N       0.05451  -0.00000   0.25000 
C          C       0.42566   0.46659   0.25000 
C          C       0.92566   0.96659   0.25000 
C          C       0.57434   0.53341   0.25000 
C          C       0.07434   0.03341   0.25000 
C          C       0.57434   0.46659   0.25000 
C          C       0.07434   0.96659   0.25000 
C          C       0.42566   0.53341   0.25000 
C          C       0.92566   0.03341   0.25000 
C          C       0.39137   0.47937   0.25000 
C          C       0.89137   0.97937   0.25000 
C          C       0.60863   0.52063   0.25000 
C          C       0.10863   0.02063   0.25000 
C          C       0.60863   0.47937   0.25000 
C          C       0.10863   0.97937   0.25000 
C          C       0.39137   0.52063   0.25000 
C          C       0.89137   0.02063   0.25000 
H          H       0.36979   0.46175   0.25000 
H          H       0.86980   0.96175   0.25000 
H          H       0.63021   0.53825   0.25000 
H          H       0.13021   0.03825   0.25000 
H          H       0.63021   0.46175   0.25000 
H          H       0.13021   0.96175   0.25000 
H          H       0.36979   0.53825   0.25000 
H          H       0.86980   0.03825   0.25000 
C          C       0.93639   0.92605   0.25000 
C          C       0.43639   0.42605   0.25000 
C          C       0.06361   0.07395   0.25000 
C          C       0.56361   0.57395   0.25000 
C          C       0.06361   0.92605   0.25000 
C          C       0.56361   0.42605   0.25000 
C          C       0.93639   0.07395   0.25000 
C          C       0.43639   0.57395   0.25000 
C          C       0.91065   0.89607   0.25000 
C          C       0.41065   0.39607   0.25000 
C          C       0.08935   0.10393   0.25000 
C          C       0.58936   0.60393   0.25000 
C          C       0.08935   0.89607   0.25000 
C          C       0.58936   0.39607   0.25000 
C          C       0.91065   0.10393   0.25000 
C          C       0.41065   0.60393   0.25000 
C          C       0.39774   0.38084   0.33789 
C          C       0.89774   0.88084   0.33789 
C          C       0.60227   0.61916   0.33789 
C          C       0.10227   0.11916   0.33789 
C          C       0.60227   0.38084   0.16212 
C          C       0.10227   0.88084   0.16212 
C          C       0.39774   0.61916   0.16212 
C          C       0.89774   0.11916   0.16212 
C          C       0.60227   0.61916   0.16212 
C          C       0.10227   0.11916   0.16212 
C          C       0.39774   0.38084   0.16212 
C          C       0.89774   0.88084   0.16212 
C          C       0.39774   0.61916   0.33789 
C          C       0.89774   0.11916   0.33789 
C          C       0.60227   0.38084   0.33789 
C          C       0.10227   0.88084   0.33789 
H          H       0.90688   0.89144   0.40223 
H          H       0.40688   0.39144   0.40223 
H          H       0.09312   0.10856   0.40223 
H          H       0.59312   0.60856   0.40223 
H          H       0.09312   0.89144   0.09778 
H          H       0.59312   0.39144   0.09778 
H          H       0.90688   0.10856   0.09778 
H          H       0.40688   0.60856   0.09778 
H          H       0.09312   0.10856   0.09778 
H          H       0.59312   0.60856   0.09778 
H          H       0.90688   0.89144   0.09778 
H          H       0.40688   0.39144   0.09778 
H          H       0.90688   0.10856   0.40223 
H          H       0.40688   0.60856   0.40223 
H          H       0.09312   0.89144   0.40223 
H          H       0.59312   0.39144   0.40223 
C          C       0.87225   0.85076   0.33769 
C          C       0.37224   0.35076   0.33769 
C          C       0.12776   0.14924   0.33769 
C          C       0.62776   0.64924   0.33769 
C          C       0.12776   0.85076   0.16231 
C          C       0.62776   0.35076   0.16231 
C          C       0.87225   0.14924   0.16231 
C          C       0.37224   0.64924   0.16231 
C          C       0.12776   0.14924   0.16231 
C          C       0.62776   0.64924   0.16231 
C          C       0.87225   0.85076   0.16231 
C          C       0.37224   0.35076   0.16231 
C          C       0.87225   0.14924   0.33769 
C          C       0.37224   0.64924   0.33769 
C          C       0.12776   0.85076   0.33769 
C          C       0.62776   0.35076   0.33769 
H          H       0.86311   0.83956   0.40131 
H          H       0.36311   0.33956   0.40131 
H          H       0.13689   0.16044   0.40131 
H          H       0.63689   0.66044   0.40131 
H          H       0.13689   0.83956   0.09869 
H          H       0.63689   0.33956   0.09869 
H          H       0.86311   0.16044   0.09869 
H          H       0.36311   0.66044   0.09869 
H          H       0.13689   0.16044   0.09869 
H          H       0.63689   0.66044   0.09869 
H          H       0.86311   0.83956   0.09869 
H          H       0.36311   0.33956   0.09869 
H          H       0.86311   0.16044   0.40131 
H          H       0.36311   0.66044   0.40131 
H          H       0.13689   0.83956   0.40131 
H          H       0.63689   0.33956   0.40131 
C          C       0.85931   0.83580   0.25000 
C          C       0.35931   0.33580   0.25000 
C          C       0.14069   0.16420   0.25000 
C          C       0.64069   0.66420   0.25000 
C          C       0.14069   0.83580   0.25000 
C          C       0.64069   0.33580   0.25000 
C          C       0.85931   0.16420   0.25000 
C          C       0.35931   0.66420   0.25000 
F          F       0.18205   0.73000   0.25000 
F          F       0.68205   0.23000   0.25000 
F          F       0.81795   0.27000   0.25000 
F          F       0.31795   0.77000   0.25000 
F          F       0.81795   0.73000   0.25000 
F          F       0.31795   0.23000   0.25000 
F          F       0.18205   0.27000   0.25000 
F          F       0.68205   0.77000   0.25000 
Cu         Cu      0.50000   0.50000   0.25000 
Cu         Cu     -0.00000  -0.00000   0.25000 
C          C       0.30057   0.68722   0.25000 
H          H       0.29212   0.65798   0.25000 
C          C       0.80057   0.18723   0.25000 
H          H       0.79212   0.15798   0.25000 
C          C       0.69943   0.31277   0.25000 
H          H       0.70788   0.34202   0.25000 
C          C       0.19943   0.81277   0.25000 
H          H       0.20788   0.84202   0.25000 
C          C       0.69943   0.68722   0.25000 
H          H       0.70788   0.65798   0.25000 
C          C       0.19943   0.18723   0.25000 
H          H       0.20788   0.15798   0.25000 
C          C       0.30057   0.31277   0.25000 
H          H       0.29212   0.34202   0.25000 
C          C       0.80057   0.81277   0.25000 
H          H       0.79212   0.84202   0.25000 
F          F       0.23198   0.67136   0.25000 
F          F       0.73198   0.17136   0.25000 
F          F       0.76802   0.32863   0.25000 
F          F       0.26802   0.82863   0.25000 
F          F       0.76802   0.67136   0.25000 
F          F       0.26802   0.17136   0.25000 
F          F       0.23198   0.32863   0.25000 
F          F       0.73198   0.82863   0.25000 
N          N       0.33502   0.69308   0.25000 
N          N       0.83502   0.19308   0.25000 
N          N       0.66498   0.30692   0.25000 
N          N       0.16498   0.80692   0.25000 
N          N       0.66498   0.69308   0.25000 
N          N       0.16498   0.19308   0.25000 
N          N       0.33502   0.30692   0.25000 
N          N       0.83502   0.80692   0.25000 
N          N      -0.00000   0.93664   0.25000 
N          N       0.50000   0.43664   0.25000 
N          N      -0.00000   0.06336   0.25000 
N          N       0.50000   0.56336   0.25000 
C          C       0.27606   0.71886   0.75000 
C          C       0.77606   0.21886   0.75000 
C          C       0.72394   0.28114   0.75000 
C          C       0.22394   0.78114   0.75000 
C          C       0.72394   0.71886   0.75000 
C          C       0.22394   0.21886   0.75000 
C          C       0.27606   0.28114   0.75000 
C          C       0.77606   0.78114   0.75000 
C          C       0.21471   0.74004   0.75000 
C          C       0.71471   0.24004   0.75000 
C          C       0.78529   0.25996   0.75000 
C          C       0.28529   0.75996   0.75000 
C          C       0.78529   0.74004   0.75000 
C          C       0.28529   0.24004   0.75000 
C          C       0.21471   0.25996   0.75000 
C          C       0.71471   0.75996   0.75000 
C          C       0.24044   0.70955   0.75000 
C          C       0.74044   0.20955   0.75000 
C          C       0.75956   0.29045   0.75000 
C          C       0.25956   0.79045   0.75000 
C          C       0.75956   0.70955   0.75000 
C          C       0.25956   0.20955   0.75000 
C          C       0.24044   0.29045   0.75000 
C          C       0.74044   0.79045   0.75000 
C          C       0.97127   0.91357   0.75000 
C          C       0.47127   0.41357   0.75000 
C          C       0.02873   0.08643   0.75000 
C          C       0.52873   0.58643   0.75000 
C          C       0.02873   0.91357   0.75000 
C          C       0.52873   0.41357   0.75000 
C          C       0.97127   0.08643   0.75000 
C          C       0.47127   0.58643   0.75000 
C          C       0.98226   0.87371   0.75000 
C          C       0.48226   0.37371   0.75000 
C          C       0.01774   0.12629   0.75000 
C          C       0.51774   0.62629   0.75000 
C          C       0.01774   0.87371   0.75000 
C          C       0.51774   0.37371   0.75000 
C          C       0.98226   0.12629   0.75000 
C          C       0.48226   0.62629   0.75000 
H          H       0.96710   0.84861   0.75000 
H          H       0.46710   0.34861   0.75000 
H          H       0.03291   0.15139   0.75000 
H          H       0.53291   0.65139   0.75000 
H          H       0.03291   0.84861   0.75000 
H          H       0.53291   0.34861   0.75000 
H          H       0.96710   0.15139   0.75000 
H          H       0.46710   0.65139   0.75000 
N          N       0.44549   0.50000   0.75000 
N          N       0.94549  -0.00000   0.75000 
N          N       0.55451   0.50000   0.75000 
N          N       0.05451  -0.00000   0.75000 
C          C       0.42566   0.46659   0.75000 
C          C       0.92566   0.96659   0.75000 
C          C       0.57434   0.53341   0.75000 
C          C       0.07434   0.03341   0.75000 
C          C       0.57434   0.46659   0.75000 
C          C       0.07434   0.96659   0.75000 
C          C       0.42566   0.53341   0.75000 
C          C       0.92566   0.03341   0.75000 
C          C       0.39137   0.47937   0.75000 
C          C       0.89137   0.97937   0.75000 
C          C       0.60863   0.52063   0.75000 
C          C       0.10863   0.02063   0.75000 
C          C       0.60863   0.47937   0.75000 
C          C       0.10863   0.97937   0.75000 
C          C       0.39137   0.52063   0.75000 
C          C       0.89137   0.02063   0.75000 
H          H       0.36979   0.46175   0.75000 
H          H       0.86980   0.96175   0.75000 
H          H       0.63021   0.53825   0.75000 
H          H       0.13021   0.03825   0.75000 
H          H       0.63021   0.46175   0.75000 
H          H       0.13021   0.96175   0.75000 
H          H       0.36979   0.53825   0.75000 
H          H       0.86980   0.03825   0.75000 
C          C       0.93639   0.92605   0.75000 
C          C       0.43639   0.42605   0.75000 
C          C       0.06361   0.07395   0.75000 
C          C       0.56361   0.57395   0.75000 
C          C       0.06361   0.92605   0.75000 
C          C       0.56361   0.42605   0.75000 
C          C       0.93639   0.07395   0.75000 
C          C       0.43639   0.57395   0.75000 
C          C       0.91065   0.89607   0.75000 
C          C       0.41065   0.39607   0.75000 
C          C       0.08935   0.10393   0.75000 
C          C       0.58936   0.60393   0.75000 
C          C       0.08935   0.89607   0.75000 
C          C       0.58936   0.39607   0.75000 
C          C       0.91065   0.10393   0.75000 
C          C       0.41065   0.60393   0.75000 
C          C       0.39774   0.38084   0.83788 
C          C       0.89774   0.88084   0.83788 
C          C       0.60227   0.61916   0.83788 
C          C       0.10227   0.11916   0.83788 
C          C       0.60227   0.38084   0.66212 
C          C       0.10227   0.88084   0.66212 
C          C       0.39774   0.61916   0.66212 
C          C       0.89774   0.11916   0.66212 
C          C       0.60227   0.61916   0.66212 
C          C       0.10227   0.11916   0.66212 
C          C       0.39774   0.38084   0.66212 
C          C       0.89774   0.88084   0.66212 
C          C       0.39774   0.61916   0.83788 
C          C       0.89774   0.11916   0.83788 
C          C       0.60227   0.38084   0.83788 
C          C       0.10227   0.88084   0.83788 
H          H       0.90688   0.89144   0.90223 
H          H       0.40688   0.39144   0.90223 
H          H       0.09312   0.10856   0.90223 
H          H       0.59312   0.60856   0.90223 
H          H       0.09312   0.89144   0.59778 
H          H       0.59312   0.39144   0.59778 
H          H       0.90688   0.10856   0.59778 
H          H       0.40688   0.60856   0.59778 
H          H       0.09312   0.10856   0.59778 
H          H       0.59312   0.60856   0.59778 
H          H       0.90688   0.89144   0.59778 
H          H       0.40688   0.39144   0.59778 
H          H       0.90688   0.10856   0.90223 
H          H       0.40688   0.60856   0.90223 
H          H       0.09312   0.89144   0.90223 
H          H       0.59312   0.39144   0.90223 
C          C       0.87225   0.85076   0.83769 
C          C       0.37224   0.35076   0.83769 
C          C       0.12776   0.14924   0.83769 
C          C       0.62776   0.64924   0.83769 
C          C       0.12776   0.85076   0.66231 
C          C       0.62776   0.35076   0.66231 
C          C       0.87225   0.14924   0.66231 
C          C       0.37224   0.64924   0.66231 
C          C       0.12776   0.14924   0.66231 
C          C       0.62776   0.64924   0.66231 
C          C       0.87225   0.85076   0.66231 
C          C       0.37224   0.35076   0.66231 
C          C       0.87225   0.14924   0.83769 
C          C       0.37224   0.64924   0.83769 
C          C       0.12776   0.85076   0.83769 
C          C       0.62776   0.35076   0.83769 
H          H       0.86311   0.83956   0.90131 
H          H       0.36311   0.33956   0.90131 
H          H       0.13689   0.16044   0.90131 
H          H       0.63689   0.66044   0.90131 
H          H       0.13689   0.83956   0.59869 
H          H       0.63689   0.33956   0.59869 
H          H       0.86311   0.16044   0.59869 
H          H       0.36311   0.66044   0.59869 
H          H       0.13689   0.16044   0.59869 
H          H       0.63689   0.66044   0.59869 
H          H       0.86311   0.83956   0.59869 
H          H       0.36311   0.33956   0.59869 
H          H       0.86311   0.16044   0.90131 
H          H       0.36311   0.66044   0.90131 
H          H       0.13689   0.83956   0.90131 
H          H       0.63689   0.33956   0.90131 
C          C       0.85931   0.83580   0.75000 
C          C       0.35931   0.33580   0.75000 
C          C       0.14069   0.16420   0.75000 
C          C       0.64069   0.66420   0.75000 
C          C       0.14069   0.83580   0.75000 
C          C       0.64069   0.33580   0.75000 
C          C       0.85931   0.16420   0.75000 
C          C       0.35931   0.66420   0.75000 
F          F       0.18205   0.73000   0.75000 
F          F       0.68205   0.23000   0.75000 
F          F       0.81795   0.27000   0.75000 
F          F       0.31795   0.77000   0.75000 
F          F       0.81795   0.73000   0.75000 
F          F       0.31795   0.23000   0.75000 
F          F       0.18205   0.27000   0.75000 
F          F       0.68205   0.77000   0.75000 
Cu         Cu      0.50000   0.50000   0.75000 
Cu         Cu     -0.00000  -0.00000   0.75000 
C          C       0.30057   0.68722   0.75000 
H          H       0.29212   0.65798   0.75000 
C          C       0.80057   0.18723   0.75000 
H          H       0.79212   0.15798   0.75000 
C          C       0.69943   0.31277   0.75000 
H          H       0.70788   0.34202   0.75000 
C          C       0.19943   0.81277   0.75000 
H          H       0.20788   0.84202   0.75000 
C          C       0.69943   0.68722   0.75000 
H          H       0.70788   0.65798   0.75000 
C          C       0.19943   0.18723   0.75000 
H          H       0.20788   0.15798   0.75000 
C          C       0.30057   0.31277   0.75000 
H          H       0.29212   0.34202   0.75000 
C          C       0.80057   0.81277   0.75000 
H          H       0.79212   0.84202   0.75000 
F          F       0.23198   0.67136   0.75000 
F          F       0.73198   0.17136   0.75000 
F          F       0.76802   0.32863   0.75000 
F          F       0.26802   0.82863   0.75000 
F          F       0.76802   0.67136   0.75000 
F          F       0.26802   0.17136   0.75000 
F          F       0.23198   0.32863   0.75000 
F          F       0.73198   0.82863   0.75000 
N          N       0.33502   0.69308   0.75000 
N          N       0.83502   0.19308   0.75000 
N          N       0.66498   0.30692   0.75000 
N          N       0.16498   0.80692   0.75000 
N          N       0.66498   0.69308   0.75000 
N          N       0.16498   0.19308   0.75000 
N          N       0.33502   0.30692   0.75000 
N          N       0.83502   0.80692   0.75000 
N          N      -0.00000   0.93664   0.75000 
N          N       0.50000   0.43664   0.75000 
N          N      -0.00000   0.06336   0.75000 
N          N       0.50000   0.56336   0.75000 
