data_crystal

_cell_length_a    35.81350
_cell_length_b    35.74020
_cell_length_c    13.42420
_cell_angle_alpha 90.00000
_cell_angle_beta  90.00000
_cell_angle_gamma 90.00040

_space_group_name_Hall 'P 1'
_space_group_name_H-M_alt  'P 1'

loop_
_symmetry_equiv_pos_as_xyz
'x,y,z' 

loop_
_atom_site_label
_atom_site_type_symbol
_atom_site_fract_x
_atom_site_fract_y
_atom_site_fract_z
C          C       0.48055   0.68259   0.25000 
C          C       0.54029   0.64900   0.25000 
C          C       0.51963   0.61534   0.25000 
C          C       0.53081   0.57804   0.25000 
C          C       0.51945   0.31741   0.25000 
C          C       0.45971   0.35100   0.25000 
C          C       0.48037   0.38466   0.25000 
C          C       0.46919   0.42196   0.25000 
O          O       0.53324   0.71777   0.25000 
O          O       0.46676   0.28223   0.25000 
H          H       0.56879   0.64938   0.25000 
H          H       0.43121   0.35062   0.25000 
C          C       0.31677   0.48051   0.25000 
C          C       0.35026   0.54041   0.25000 
C          C       0.38385   0.51973   0.25000 
C          C       0.42106   0.53108   0.25000 
C          C       0.68323   0.51949   0.25000 
C          C       0.64974   0.45959   0.25000 
C          C       0.61615   0.48028   0.25000 
C          C       0.57894   0.46892   0.25000 
O          O       0.28166   0.53331   0.25000 
O          O       0.71834   0.46669   0.25000 
H          H       0.34988   0.56896   0.25000 
H          H       0.65012   0.43104   0.25000 
N          N       0.56663   0.56645   0.25000 
N          N       0.43337   0.43355   0.25000 
C          C       0.51980   0.68256   0.25000 
C          C       0.46000   0.64907   0.25000 
C          C       0.48061   0.61538   0.25000 
C          C       0.46935   0.57810   0.25000 
C          C       0.48020   0.31744   0.25000 
C          C       0.54000   0.35093   0.25000 
C          C       0.51939   0.38462   0.25000 
C          C       0.53065   0.42190   0.25000 
O          O       0.46716   0.71783   0.25000 
O          O       0.53284   0.28217   0.25000 
H          H       0.43151   0.64950   0.25000 
H          H       0.56849   0.35050   0.25000 
C          C       0.68320   0.48016   0.25000 
C          C       0.64981   0.54011   0.25000 
C          C       0.61619   0.51949   0.25000 
C          C       0.57900   0.53091   0.25000 
C          C       0.31680   0.51984   0.25000 
C          C       0.35019   0.45989   0.25000 
C          C       0.38381   0.48051   0.25000 
C          C       0.42100   0.46909   0.25000 
O          O       0.71840   0.53290   0.25000 
O          O       0.28160   0.46710   0.25000 
H          H       0.65024   0.56866   0.25000 
H          H       0.34976   0.43134   0.25000 
N          N       0.43351   0.56659   0.25000 
N          N       0.56649   0.43341   0.25000 
B          B       0.50022   0.74088   0.25000 
B          B       0.49978   0.25912   0.25000 
N          N       0.50006   0.55627   0.25000 
N          N       0.49994   0.44373   0.25000 
B          B       0.25859   0.50023   0.25000 
B          B       0.74141   0.49978   0.25000 
N          N       0.44203   0.50006   0.25000 
N          N       0.55797   0.49994   0.25000 
H          H       0.53105   0.49996   0.25000 
H          H       0.46895   0.50004   0.25000 
N          N       0.95710   0.54119   0.25000 
N          N       0.04290   0.45881   0.25000 
H          H       0.97582   0.52158   0.25000 
H          H       0.02418   0.47842   0.25000 
C          C       0.96502   0.57793   0.25000 
C          C       0.03498   0.42207   0.25000 
C          C       0.93115   0.59687   0.25000 
C          C       0.06885   0.40313   0.25000 
C          C       0.91999   0.53487   0.25000 
C          C       0.08001   0.46513   0.25000 
C          C       0.90319   0.57017   0.25000 
C          C       0.09681   0.42983   0.25000 
H          H       0.92740   0.62521   0.25000 
H          H       0.07260   0.37479   0.25000 
H          H       0.87519   0.57569   0.25000 
H          H       0.12481   0.42431   0.25000 
N          N       0.04210   0.54040   0.25000 
N          N       0.95790   0.45960   0.25000 
C          C       0.03470   0.57744   0.25000 
C          C       0.96530   0.42256   0.25000 
C          C       0.06844   0.59661   0.25000 
C          C       0.93156   0.40339   0.25000 
C          C       0.92050   0.46522   0.25000 
C          C       0.07950   0.53478   0.25000 
C          C       0.90361   0.42996   0.25000 
C          C       0.09639   0.57004   0.25000 
H          H       0.07211   0.62497   0.25000 
H          H       0.92789   0.37503   0.25000 
C          C       0.99996   0.59544   0.25000 
C          C       0.00004   0.40456   0.25000 
H          H       0.87562   0.42439   0.25000 
H          H       0.12438   0.57561   0.25000 
C          C       0.90149   0.49993   0.25000 
C          C       0.09851   0.50007   0.25000 
C          C       0.86209   0.49983   0.25000 
C          C       0.13791   0.50017   0.25000 
C          C       0.84217   0.49979   0.15925 
C          C       0.15783   0.50021   0.15925 
C          C       0.15783   0.50021   0.34076 
C          C       0.84217   0.49979   0.34076 
C          C       0.50007   0.90129   0.25000 
C          C       0.49993   0.09871   0.25000 
C          C       0.50017   0.86181   0.25000 
C          C       0.49983   0.13819   0.25000 
C          C       0.50020   0.84185   0.15925 
C          C       0.49980   0.15815   0.15925 
C          C       0.49980   0.15815   0.34076 
C          C       0.50020   0.84185   0.34076 
H          H       0.85621   0.49979   0.09288 
H          H       0.14379   0.50021   0.09288 
H          H       0.14379   0.50021   0.40713 
H          H       0.85621   0.49979   0.40713 
C          C       0.80287   0.49976   0.15926 
C          C       0.19713   0.50024   0.15926 
C          C       0.19713   0.50024   0.34074 
C          C       0.80287   0.49976   0.34074 
H          H       0.78882   0.49974   0.09291 
H          H       0.21118   0.50026   0.09291 
H          H       0.21118   0.50026   0.40709 
H          H       0.78882   0.49974   0.40709 
C          C       0.78295   0.49976   0.25000 
C          C       0.21705   0.50024   0.25000 
H          H       0.00009   0.62406   0.25000 
H          H       0.99991   0.37594   0.25000 
N          N       0.45890   0.95702   0.25000 
N          N       0.54110   0.04298   0.25000 
H          H       0.47846   0.97577   0.25000 
H          H       0.52154   0.02423   0.25000 
C          C       0.42223   0.96495   0.25000 
C          C       0.57777   0.03505   0.25000 
C          C       0.40332   0.93101   0.25000 
C          C       0.59668   0.06899   0.25000 
C          C       0.46520   0.91983   0.25000 
C          C       0.53480   0.08017   0.25000 
C          C       0.42997   0.90299   0.25000 
C          C       0.57003   0.09701   0.25000 
H          H       0.37504   0.92725   0.25000 
H          H       0.62496   0.07275   0.25000 
H          H       0.42446   0.87494   0.25000 
H          H       0.57554   0.12506   0.25000 
N          N       0.45969   0.04219   0.25000 
N          N       0.54031   0.95782   0.25000 
C          C       0.42272   0.03477   0.25000 
C          C       0.57728   0.96523   0.25000 
C          C       0.40359   0.06859   0.25000 
C          C       0.59641   0.93142   0.25000 
C          C       0.53470   0.92034   0.25000 
C          C       0.46530   0.07966   0.25000 
C          C       0.56989   0.90341   0.25000 
C          C       0.43011   0.09659   0.25000 
H          H       0.37528   0.07225   0.25000 
H          H       0.62472   0.92775   0.25000 
C          C       0.40476   0.99996   0.25000 
C          C       0.59524   0.00004   0.25000 
H          H       0.57545   0.87536   0.25000 
H          H       0.42455   0.12464   0.25000 
H          H       0.50021   0.85592   0.09288 
H          H       0.49979   0.14408   0.09288 
H          H       0.49979   0.14408   0.40712 
H          H       0.50021   0.85592   0.40712 
C          C       0.50023   0.80247   0.15926 
C          C       0.49977   0.19753   0.15926 
C          C       0.49977   0.19753   0.34074 
C          C       0.50023   0.80247   0.34074 
H          H       0.50026   0.78839   0.09291 
H          H       0.49974   0.21161   0.09291 
H          H       0.49974   0.21161   0.40709 
H          H       0.50026   0.78839   0.40709 
C          C       0.50024   0.78251   0.25000 
C          C       0.49976   0.21750   0.25000 
H          H       0.37619   0.00009   0.25000 
H          H       0.62381   0.99991   0.25000 
C          C       0.48055   0.68259   0.75000 
C          C       0.54029   0.64900   0.75000 
C          C       0.51963   0.61534   0.75000 
C          C       0.53081   0.57804   0.75000 
C          C       0.51945   0.31741   0.75000 
C          C       0.45971   0.35100   0.75000 
C          C       0.48037   0.38466   0.75000 
C          C       0.46919   0.42196   0.75000 
O          O       0.53324   0.71777   0.75000 
O          O       0.46676   0.28223   0.75000 
H          H       0.56879   0.64938   0.75000 
H          H       0.43121   0.35062   0.75000 
C          C       0.31677   0.48051   0.75000 
C          C       0.35026   0.54041   0.75000 
C          C       0.38385   0.51973   0.75000 
C          C       0.42106   0.53108   0.75000 
C          C       0.68323   0.51949   0.75000 
C          C       0.64974   0.45959   0.75000 
C          C       0.61615   0.48028   0.75000 
C          C       0.57894   0.46892   0.75000 
O          O       0.28166   0.53331   0.75000 
O          O       0.71834   0.46669   0.75000 
H          H       0.34988   0.56896   0.75000 
H          H       0.65012   0.43104   0.75000 
N          N       0.56663   0.56645   0.75000 
N          N       0.43337   0.43355   0.75000 
C          C       0.51980   0.68256   0.75000 
C          C       0.46000   0.64907   0.75000 
C          C       0.48061   0.61538   0.75000 
C          C       0.46935   0.57810   0.75000 
C          C       0.48020   0.31744   0.75000 
C          C       0.54000   0.35093   0.75000 
C          C       0.51939   0.38462   0.75000 
C          C       0.53065   0.42190   0.75000 
O          O       0.46716   0.71783   0.75000 
O          O       0.53284   0.28217   0.75000 
H          H       0.43151   0.64950   0.75000 
H          H       0.56849   0.35050   0.75000 
C          C       0.68320   0.48016   0.75000 
C          C       0.64981   0.54011   0.75000 
C          C       0.61619   0.51949   0.75000 
C          C       0.57900   0.53091   0.75000 
C          C       0.31680   0.51984   0.75000 
C          C       0.35019   0.45989   0.75000 
C          C       0.38381   0.48051   0.75000 
C          C       0.42100   0.46909   0.75000 
O          O       0.71840   0.53290   0.75000 
O          O       0.28160   0.46710   0.75000 
H          H       0.65024   0.56866   0.75000 
H          H       0.34976   0.43134   0.75000 
N          N       0.43351   0.56659   0.75000 
N          N       0.56649   0.43341   0.75000 
B          B       0.50022   0.74088   0.75000 
B          B       0.49978   0.25912   0.75000 
N          N       0.50006   0.55627   0.75000 
N          N       0.49994   0.44373   0.75000 
B          B       0.25859   0.50023   0.75000 
B          B       0.74141   0.49978   0.75000 
N          N       0.44203   0.50006   0.75000 
N          N       0.55797   0.49994   0.75000 
H          H       0.53105   0.49996   0.75000 
H          H       0.46895   0.50004   0.75000 
N          N       0.95710   0.54119   0.75000 
N          N       0.04290   0.45881   0.75000 
H          H       0.97582   0.52158   0.75000 
H          H       0.02418   0.47842   0.75000 
C          C       0.96502   0.57793   0.75000 
C          C       0.03498   0.42207   0.75000 
C          C       0.93115   0.59687   0.75000 
C          C       0.06885   0.40313   0.75000 
C          C       0.91999   0.53487   0.75000 
C          C       0.08001   0.46513   0.75000 
C          C       0.90319   0.57017   0.75000 
C          C       0.09681   0.42983   0.75000 
H          H       0.92740   0.62521   0.75000 
H          H       0.07260   0.37479   0.75000 
H          H       0.87519   0.57569   0.75000 
H          H       0.12481   0.42431   0.75000 
N          N       0.04210   0.54040   0.75000 
N          N       0.95790   0.45960   0.75000 
C          C       0.03470   0.57744   0.75000 
C          C       0.96530   0.42256   0.75000 
C          C       0.06844   0.59661   0.75000 
C          C       0.93156   0.40339   0.75000 
C          C       0.92050   0.46522   0.75000 
C          C       0.07950   0.53478   0.75000 
C          C       0.90361   0.42996   0.75000 
C          C       0.09639   0.57004   0.75000 
H          H       0.07211   0.62497   0.75000 
H          H       0.92789   0.37503   0.75000 
C          C       0.99996   0.59544   0.75000 
C          C       0.00004   0.40456   0.75000 
H          H       0.87562   0.42439   0.75000 
H          H       0.12438   0.57561   0.75000 
C          C       0.90149   0.49993   0.75000 
C          C       0.09851   0.50007   0.75000 
C          C       0.86209   0.49983   0.75000 
C          C       0.13791   0.50017   0.75000 
C          C       0.84217   0.49979   0.65925 
C          C       0.15783   0.50021   0.65925 
C          C       0.15783   0.50021   0.84076 
C          C       0.84217   0.49979   0.84076 
C          C       0.50007   0.90129   0.75000 
C          C       0.49993   0.09871   0.75000 
C          C       0.50017   0.86181   0.75000 
C          C       0.49983   0.13819   0.75000 
C          C       0.50020   0.84185   0.65925 
C          C       0.49980   0.15815   0.65925 
C          C       0.49980   0.15815   0.84076 
C          C       0.50020   0.84185   0.84076 
H          H       0.85621   0.49979   0.59288 
H          H       0.14379   0.50021   0.59288 
H          H       0.14379   0.50021   0.90713 
H          H       0.85621   0.49979   0.90713 
C          C       0.80287   0.49976   0.65926 
C          C       0.19713   0.50024   0.65926 
C          C       0.19713   0.50024   0.84074 
C          C       0.80287   0.49976   0.84074 
H          H       0.78882   0.49974   0.59291 
H          H       0.21118   0.50026   0.59291 
H          H       0.21118   0.50026   0.90709 
H          H       0.78882   0.49974   0.90709 
C          C       0.78295   0.49976   0.75000 
C          C       0.21705   0.50024   0.75000 
H          H       0.00009   0.62406   0.75000 
H          H       0.99991   0.37594   0.75000 
N          N       0.45890   0.95702   0.75000 
N          N       0.54110   0.04298   0.75000 
H          H       0.47846   0.97577   0.75000 
H          H       0.52154   0.02423   0.75000 
C          C       0.42223   0.96495   0.75000 
C          C       0.57777   0.03505   0.75000 
C          C       0.40332   0.93101   0.75000 
C          C       0.59668   0.06899   0.75000 
C          C       0.46520   0.91983   0.75000 
C          C       0.53480   0.08017   0.75000 
C          C       0.42997   0.90299   0.75000 
C          C       0.57003   0.09701   0.75000 
H          H       0.37504   0.92725   0.75000 
H          H       0.62496   0.07275   0.75000 
H          H       0.42446   0.87494   0.75000 
H          H       0.57554   0.12506   0.75000 
N          N       0.45969   0.04219   0.75000 
N          N       0.54031   0.95782   0.75000 
C          C       0.42272   0.03477   0.75000 
C          C       0.57728   0.96523   0.75000 
C          C       0.40359   0.06859   0.75000 
C          C       0.59641   0.93142   0.75000 
C          C       0.53470   0.92034   0.75000 
C          C       0.46530   0.07966   0.75000 
C          C       0.56989   0.90341   0.75000 
C          C       0.43011   0.09659   0.75000 
H          H       0.37528   0.07225   0.75000 
H          H       0.62472   0.92775   0.75000 
C          C       0.40476   0.99996   0.75000 
C          C       0.59524   0.00004   0.75000 
H          H       0.57545   0.87536   0.75000 
H          H       0.42455   0.12464   0.75000 
H          H       0.50021   0.85592   0.59288 
H          H       0.49979   0.14408   0.59288 
H          H       0.49979   0.14408   0.90712 
H          H       0.50021   0.85592   0.90712 
C          C       0.50023   0.80247   0.65926 
C          C       0.49977   0.19753   0.65926 
C          C       0.49977   0.19753   0.84074 
C          C       0.50023   0.80247   0.84074 
H          H       0.50026   0.78839   0.59291 
H          H       0.49974   0.21161   0.59291 
H          H       0.49974   0.21161   0.90709 
H          H       0.50026   0.78839   0.90709 
C          C       0.50024   0.78251   0.75000 
C          C       0.49976   0.21750   0.75000 
H          H       0.37619   0.00009   0.75000 
H          H       0.62381   0.99991   0.75000 
