data_crystal

_cell_length_a    13.42100
_cell_length_b    13.42100
_cell_length_c    8.52800
_cell_angle_alpha 90.00000
_cell_angle_beta  90.00000
_cell_angle_gamma 90.00000

_space_group_name_Hall 'P 1'
_space_group_name_H-M_alt  'P 1'

loop_
_symmetry_equiv_pos_as_xyz
'x,y,z' 

loop_
_atom_site_label
_atom_site_type_symbol
_atom_site_fract_x
_atom_site_fract_y
_atom_site_fract_z
C          C       0.93460   0.91140   0.87200 
C          C       0.88810   0.94770   0.73520 
H          H       0.88960   0.01680   0.71130 
C          C       0.83920   0.88020   0.63420 
H          H       0.80810   0.90320   0.54090 
C          C       0.83730   0.78230   0.67210 
C          C       0.87730   0.74510   0.80840 
H          H       0.87150   0.67660   0.83530 
C          C       0.92640   0.81190   0.90420 
H          H       0.95620   0.78740   0.99760 
N          N       0.78130   0.71180   0.57770 
O          O       0.73260   0.64620   0.64290 
C          C       0.06540   0.08860   0.87200 
C          C       0.11190   0.05230   0.73520 
H          H       0.11040   0.98320   0.71130 
C          C       0.16080   0.11980   0.63420 
H          H       0.19190   0.09680   0.54090 
C          C       0.16270   0.21770   0.67210 
C          C       0.12270   0.25490   0.80840 
H          H       0.12850   0.32340   0.83530 
C          C       0.07360   0.18810   0.90420 
H          H       0.04380   0.21260   0.99760 
N          N       0.21870   0.28820   0.57770 
O          O       0.26740   0.35380   0.64290 
C          C       0.91140   0.06540   0.12800 
C          C       0.94770   0.11190   0.26480 
H          H       0.01680   0.11040   0.28870 
C          C       0.88020   0.16080   0.36580 
H          H       0.90320   0.19190   0.45910 
C          C       0.78230   0.16270   0.32790 
C          C       0.74510   0.12270   0.19160 
H          H       0.67660   0.12850   0.16470 
C          C       0.81190   0.07360   0.09580 
H          H       0.78740   0.04380   0.00240 
N          N       0.71180   0.21870   0.42230 
O          O       0.64620   0.26740   0.35710 
C          C       0.08860   0.93460   0.12800 
C          C       0.05230   0.88810   0.26480 
H          H       0.98320   0.88960   0.28870 
C          C       0.11980   0.83920   0.36580 
H          H       0.09680   0.80810   0.45910 
C          C       0.21770   0.83730   0.32790 
C          C       0.25490   0.87730   0.19160 
H          H       0.32340   0.87150   0.16470 
C          C       0.18810   0.92640   0.09580 
H          H       0.21260   0.95620   0.00240 
N          N       0.28820   0.78130   0.42230 
O          O       0.35380   0.73260   0.35710 
C          C       0.43460   0.58860   0.87200 
C          C       0.38810   0.55230   0.73520 
H          H       0.38960   0.48320   0.71130 
C          C       0.33920   0.61980   0.63420 
H          H       0.30810   0.59680   0.54090 
C          C       0.33730   0.71770   0.67210 
C          C       0.37730   0.75490   0.80840 
H          H       0.37150   0.82340   0.83530 
C          C       0.42640   0.68810   0.90420 
H          H       0.45620   0.71260   0.99760 
N          N       0.28130   0.78820   0.57770 
O          O       0.23260   0.85380   0.64290 
C          C       0.56540   0.41140   0.87200 
C          C       0.61190   0.44770   0.73520 
H          H       0.61040   0.51680   0.71130 
C          C       0.66080   0.38020   0.63420 
H          H       0.69190   0.40320   0.54090 
C          C       0.66270   0.28230   0.67210 
C          C       0.62270   0.24510   0.80840 
H          H       0.62850   0.17660   0.83530 
C          C       0.57360   0.31190   0.90420 
H          H       0.54380   0.28740   0.99760 
N          N       0.71870   0.21180   0.57770 
O          O       0.76740   0.14620   0.64290 
C          C       0.41140   0.43460   0.12800 
C          C       0.44770   0.38810   0.26480 
H          H       0.51680   0.38960   0.28870 
C          C       0.38020   0.33920   0.36580 
H          H       0.40320   0.30810   0.45910 
C          C       0.28230   0.33730   0.32790 
C          C       0.24510   0.37730   0.19160 
H          H       0.17660   0.37150   0.16470 
C          C       0.31190   0.42640   0.09580 
H          H       0.28740   0.45620   0.00240 
N          N       0.21180   0.28130   0.42230 
O          O       0.14620   0.23260   0.35710 
C          C       0.58860   0.56540   0.12800 
C          C       0.55230   0.61190   0.26480 
H          H       0.48320   0.61040   0.28870 
C          C       0.61980   0.66080   0.36580 
H          H       0.59680   0.69190   0.45910 
C          C       0.71770   0.66270   0.32790 
C          C       0.75490   0.62270   0.19160 
H          H       0.82340   0.62850   0.16470 
C          C       0.68810   0.57360   0.09580 
H          H       0.71260   0.54380   0.00240 
N          N       0.78820   0.71870   0.42230 
O          O       0.85380   0.76740   0.35710 
Si         Si      0.00000   0.00000   0.00000 
Si         Si      0.50000   0.50000   0.00000 
