data_crystal

_cell_length_a    13.15450
_cell_length_b    13.15450
_cell_length_c    7.98180
_cell_angle_alpha 90.00000
_cell_angle_beta  90.00000
_cell_angle_gamma 90.00000

_space_group_name_Hall 'P 1'
_space_group_name_H-M_alt  'P 1'

loop_
_symmetry_equiv_pos_as_xyz
'x,y,z' 

loop_
_atom_site_label
_atom_site_type_symbol
_atom_site_fract_x
_atom_site_fract_y
_atom_site_fract_z
C          C       0.05770   0.92410   0.88910 
C          C       0.10600   0.95730   0.74230 
H          H       0.10240   0.02750   0.71520 
C          C       0.15750   0.89540   0.63690 
H          H       0.18990   0.92160   0.53970 
C          C       0.16190   0.79030   0.67540 
C          C       0.11680   0.75450   0.82040 
H          H       0.12220   0.68470   0.84950 
C          C       0.06400   0.82050   0.92280 
H          H       0.03080   0.79440   0.01940 
N          N       0.22360   0.72210   0.58060 
O          O       0.27520   0.65490   0.65750 
C          C       0.94230   0.07590   0.88910 
C          C       0.89400   0.04270   0.74230 
H          H       0.89760   0.97250   0.71520 
C          C       0.84250   0.10460   0.63690 
H          H       0.81010   0.07840   0.53970 
C          C       0.83810   0.20970   0.67540 
C          C       0.88320   0.24550   0.82040 
H          H       0.87780   0.31530   0.84950 
C          C       0.93600   0.17950   0.92280 
H          H       0.96920   0.20560   0.01940 
N          N       0.77640   0.27790   0.58060 
O          O       0.72480   0.34510   0.65750 
C          C       0.92410   0.94230   0.11090 
C          C       0.95730   0.89400   0.25770 
H          H       0.02750   0.89760   0.28480 
C          C       0.89540   0.84250   0.36310 
H          H       0.92160   0.81010   0.46030 
C          C       0.79030   0.83810   0.32460 
C          C       0.75450   0.88320   0.17960 
H          H       0.68470   0.87780   0.15050 
C          C       0.82050   0.93600   0.07720 
H          H       0.79440   0.96920   0.98060 
N          N       0.72210   0.77640   0.41940 
O          O       0.65490   0.72480   0.34250 
C          C       0.07590   0.05770   0.11090 
C          C       0.04270   0.10600   0.25770 
H          H       0.97250   0.10240   0.28480 
C          C       0.10460   0.15750   0.36310 
H          H       0.07840   0.18990   0.46030 
C          C       0.20970   0.16190   0.32460 
C          C       0.24550   0.11680   0.17960 
H          H       0.31530   0.12220   0.15050 
C          C       0.17950   0.06400   0.07720 
H          H       0.20560   0.03080   0.98060 
N          N       0.27790   0.22360   0.41940 
O          O       0.34510   0.27520   0.34250 
C          C       0.55770   0.57590   0.88910 
C          C       0.60600   0.54270   0.74230 
H          H       0.60240   0.47250   0.71520 
C          C       0.65750   0.60460   0.63690 
H          H       0.68990   0.57840   0.53970 
C          C       0.66190   0.70970   0.67540 
C          C       0.61680   0.74550   0.82040 
H          H       0.62220   0.81530   0.84950 
C          C       0.56400   0.67950   0.92280 
H          H       0.53080   0.70560   0.01940 
N          N       0.72360   0.77790   0.58060 
O          O       0.77520   0.84510   0.65750 
C          C       0.44230   0.42410   0.88910 
C          C       0.39400   0.45730   0.74230 
H          H       0.39760   0.52750   0.71520 
C          C       0.34250   0.39540   0.63690 
H          H       0.31010   0.42160   0.53970 
C          C       0.33810   0.29030   0.67540 
C          C       0.38320   0.25450   0.82040 
H          H       0.37780   0.18470   0.84950 
C          C       0.43600   0.32050   0.92280 
H          H       0.46920   0.29440   0.01940 
N          N       0.27640   0.22210   0.58060 
O          O       0.22480   0.15490   0.65750 
C          C       0.42410   0.55770   0.11090 
C          C       0.45730   0.60600   0.25770 
H          H       0.52750   0.60240   0.28480 
C          C       0.39540   0.65750   0.36310 
H          H       0.42160   0.68990   0.46030 
C          C       0.29030   0.66190   0.32460 
C          C       0.25450   0.61680   0.17960 
H          H       0.18470   0.62220   0.15050 
C          C       0.32050   0.56400   0.07720 
H          H       0.29440   0.53080   0.98060 
N          N       0.22210   0.72360   0.41940 
O          O       0.15490   0.77520   0.34250 
C          C       0.57590   0.44230   0.11090 
C          C       0.54270   0.39400   0.25770 
H          H       0.47250   0.39760   0.28480 
C          C       0.60460   0.34250   0.36310 
H          H       0.57840   0.31010   0.46030 
C          C       0.70970   0.33810   0.32460 
C          C       0.74550   0.38320   0.17960 
H          H       0.81530   0.37780   0.15050 
C          C       0.67950   0.43600   0.07720 
H          H       0.70560   0.46920   0.98060 
N          N       0.77790   0.27640   0.41940 
O          O       0.84510   0.22480   0.34250 
C          C       0.00000   0.00000   0.00000 
C          C       0.50000   0.50000   0.00000 
