data_crystal

_cell_length_a    30.85660
_cell_length_b    30.85660
_cell_length_c    8.91520
_cell_angle_alpha 90.00000
_cell_angle_beta  90.00000
_cell_angle_gamma 120.00000

_space_group_name_Hall 'P 1'
_space_group_name_H-M_alt  'P 1'

loop_
_symmetry_equiv_pos_as_xyz
'x,y,z' 

loop_
_atom_site_label
_atom_site_type_symbol
_atom_site_fract_x
_atom_site_fract_y
_atom_site_fract_z
C          C       0.43564   0.45511   0.33594 
C          C       0.54451   0.98061   0.35984 
C          C       0.02385   0.56617   0.34032 
C          C       0.45685   0.43457   0.18798 
C          C       0.98790   0.54855   0.12579 
C          C       0.56374   0.01812   0.14335 
C          C       0.38916   0.42520   0.40720 
C          C       0.57442   0.96404   0.43109 
C          C       0.04042   0.61265   0.41157 
C          C       0.42694   0.38809   0.11673 
C          C       0.97133   0.57846   0.05453 
C          C       0.61022   0.03469   0.07210 
C          C       0.36835   0.44651   0.49995 
C          C       0.55311   0.92192   0.52385 
C          C       0.08254   0.63346   0.50433 
C          C       0.44825   0.36728   0.02397 
C          C       0.92921   0.55715   0.96178 
C          C       0.63103   0.07681   0.97934 
C          C       0.39343   0.49845   0.52344 
C          C       0.50117   0.89506   0.54733 
C          C       0.10940   0.60838   0.52781 
C          C       0.50019   0.39236   0.00049 
C          C       0.90235   0.50521   0.93829 
C          C       0.60595   0.10367   0.95586 
C          C       0.43938   0.52846   0.45277 
C          C       0.47116   0.91100   0.47667 
C          C       0.09346   0.56243   0.45715 
C          C       0.53020   0.43831   0.07115 
C          C       0.91829   0.47520   0.00896 
C          C       0.56000   0.08773   0.02652 
C          C       0.45996   0.50731   0.35840 
C          C       0.49231   0.95273   0.38229 
C          C       0.05173   0.54185   0.36277 
C          C       0.50905   0.45889   0.16553 
C          C       0.96002   0.49635   0.10333 
C          C       0.53942   0.04600   0.12090 
C          C       0.32609   0.50582   0.05544 
C          C       0.49418   0.82027   0.05544 
C          C       0.17973   0.67391   0.05544 
C          C       0.50582   0.32609   0.44456 
C          C       0.82027   0.49418   0.44456 
C          C       0.67391   0.17973   0.44456 
C          C       0.31114   0.53472   0.15390 
C          C       0.46528   0.77642   0.15390 
C          C       0.22358   0.68886   0.15390 
C          C       0.53472   0.31114   0.34610 
C          C       0.77642   0.46528   0.34610 
C          C       0.68886   0.22358   0.34610 
C          C       0.26093   0.52316   0.15977 
C          C       0.47684   0.73777   0.15977 
C          C       0.26223   0.73907   0.15977 
C          C       0.52316   0.26093   0.34023 
C          C       0.73777   0.47684   0.34023 
C          C       0.73907   0.26223   0.34023 
C          C       0.24836   0.55266   0.25074 
C          C       0.44734   0.69570   0.25074 
C          C       0.30430   0.75164   0.25074 
C          C       0.55266   0.24836   0.24926 
C          C       0.69570   0.44734   0.24926 
C          C       0.75164   0.30430   0.24926 
C          C       0.28474   0.59319   0.33443 
C          C       0.40681   0.69155   0.33443 
C          C       0.30845   0.71526   0.33443 
C          C       0.59319   0.28474   0.16557 
C          C       0.69155   0.40681   0.16557 
C          C       0.71526   0.30845   0.16557 
C          C       0.33499   0.60382   0.33069 
C          C       0.39618   0.73117   0.33069 
C          C       0.26883   0.66501   0.33069 
C          C       0.60382   0.33499   0.16931 
C          C       0.73117   0.39618   0.16931 
C          C       0.66501   0.26883   0.16931 
C          C       0.34734   0.57453   0.23948 
C          C       0.42547   0.77281   0.23948 
C          C       0.22719   0.65266   0.23948 
C          C       0.57453   0.34734   0.26052 
C          C       0.77281   0.42547   0.26052 
C          C       0.65266   0.22719   0.26052 
N          N       0.52387   0.37271   0.35175 
N          N       0.62729   0.15116   0.35175 
N          N       0.84884   0.47613   0.35175 
N          N       0.37271   0.52387   0.14825 
N          N       0.15116   0.62729   0.14825 
N          N       0.47613   0.84884   0.14825 
H          H       0.38577   0.58275   0.23597 
H          H       0.41725   0.80302   0.23597 
H          H       0.19698   0.61423   0.23597 
H          H       0.58275   0.38577   0.26403 
H          H       0.80302   0.41725   0.26403 
H          H       0.61423   0.19698   0.26403 
H          H       0.21012   0.54471   0.25681 
H          H       0.45529   0.66541   0.25681 
H          H       0.33459   0.78988   0.25681 
H          H       0.54471   0.21012   0.24319 
H          H       0.66541   0.45529   0.24319 
H          H       0.78988   0.33459   0.24319 
H          H       0.33359   0.42199   0.55685 
H          H       0.57763   0.91168   0.58074 
H          H       0.09278   0.66822   0.56122 
H          H       0.42373   0.33252   0.96708 
H          H       0.91897   0.58167   0.90488 
H          H       0.66579   0.08705   0.92245 
H          H       0.36942   0.38490   0.39725 
H          H       0.61472   0.98460   0.42115 
H          H       0.01986   0.63239   0.40163 
H          H       0.38664   0.36835   0.12667 
H          H       0.99189   0.61876   0.06448 
H          H       0.62996   0.01413   0.08204 
H          H       0.45904   0.56861   0.46948 
H          H       0.43101   0.89051   0.49337 
H          H       0.11395   0.54277   0.47385 
H          H       0.57035   0.45797   0.05445 
H          H       0.89780   0.43505   0.99225 
H          H       0.54034   0.10822   0.00982 
H          H       0.49467   0.53229   0.30205 
H          H       0.46733   0.96246   0.32595 
H          H       0.04200   0.50714   0.30643 
H          H       0.53403   0.49360   0.22187 
H          H       0.96975   0.47137   0.15968 
H          H       0.50471   0.03627   0.17724 
H          H       0.29741   0.47116   0.00664 
H          H       0.52884   0.82625   0.00664 
H          H       0.17375   0.70259   0.00664 
H          H       0.47116   0.29741   0.49336 
H          H       0.82625   0.52884   0.49336 
H          H       0.70259   0.17375   0.49336 
C          C       0.73806   0.35828   0.13891 
C          C       0.62066   0.25709   0.11133 
C          C       0.64025   0.38786   0.13544 
C          C       0.37691   0.63839   0.38154 
C          C       0.25690   0.61502   0.37191 
C          C       0.35658   0.73974   0.36922 
H          H       0.74003   0.35954   0.01903 
H          H       0.76424   0.36713   0.22853 
H          H       0.59615   0.21813   0.13279 
H          H       0.62920   0.26846   0.49667 
H          H       0.62902   0.41013   0.19838 
H          H       0.63888   0.38968   0.01581 
H          H       0.37023   0.64018   0.49853 
H          H       0.40031   0.62543   0.33461 
H          H       0.25510   0.61405   0.49180 
H          H       0.22444   0.59348   0.30407 
H          H       0.35668   0.73956   0.48923 
H          H       0.36702   0.77079   0.29552 
O          O       0.74498   0.52045   0.34461 
O          O       0.77348   0.25235   0.34260 
O          O       0.47611   0.23228   0.33340 
O          O       0.51401   0.74121   0.16354 
O          O       0.24824   0.76753   0.16088 
O          O       0.22659   0.48093   0.15297 
C          C       0.82004   0.28640   0.34985 
H          H       0.84268   0.26911   0.35050 
H          H       0.82656   0.30773   0.45040 
H          H       0.82953   0.31060   0.25467 
C          C       0.70987   0.53395   0.34248 
H          H       0.72746   0.57386   0.34752 
H          H       0.68559   0.51794   0.43698 
H          H       0.68856   0.52081   0.24125 
C          C       0.44938   0.18122   0.32656 
H          H       0.41026   0.16896   0.32186 
H          H       0.45698   0.16592   0.42409 
H          H       0.45995   0.16879   0.22836 
C          C       0.22593   0.43715   0.14918 
H          H       0.18805   0.40712   0.14309 
H          H       0.24313   0.43327   0.24859 
H          H       0.24609   0.43614   0.05286 
C          C       0.20644   0.76112   0.15643 
H          H       0.19758   0.78437   0.15758 
H          H       0.17698   0.73545   0.24962 
H          H       0.18376   0.73864   0.05428 
C          C       0.55368   0.77784   0.17036 
H          H       0.58224   0.76782   0.17217 
H          H       0.55588   0.79800   0.27040 
H          H       0.55885   0.80087   0.07467 
C          C       0.43583   0.45495   0.82778 
C          C       0.54451   0.98061   0.85984 
C          C       0.02385   0.56617   0.84032 
C          C       0.45952   0.43196   0.68976 
C          C       0.98790   0.54855   0.62579 
C          C       0.56374   0.01812   0.64335 
C          C       0.38935   0.42504   0.89903 
C          C       0.57442   0.96404   0.93109 
C          C       0.04042   0.61265   0.91157 
C          C       0.42961   0.38548   0.61850 
C          C       0.97133   0.57846   0.55453 
C          C       0.61022   0.03469   0.57210 
C          C       0.36854   0.44635   0.99179 
C          C       0.55311   0.92192   0.02385 
C          C       0.08254   0.63346   0.00433 
C          C       0.45092   0.36467   0.52575 
C          C       0.92921   0.55715   0.46178 
C          C       0.63103   0.07681   0.47934 
C          C       0.39362   0.49829   0.01527 
C          C       0.50117   0.89506   0.04733 
C          C       0.10940   0.60838   0.02781 
C          C       0.50286   0.38975   0.50226 
C          C       0.90235   0.50521   0.43829 
C          C       0.60595   0.10367   0.45586 
C          C       0.43957   0.52830   0.94461 
C          C       0.47116   0.91100   0.97667 
C          C       0.09346   0.56243   0.95715 
C          C       0.53287   0.43570   0.57293 
C          C       0.91829   0.47520   0.50896 
C          C       0.56000   0.08773   0.52652 
C          C       0.46015   0.50715   0.85023 
C          C       0.49231   0.95273   0.88229 
C          C       0.05173   0.54185   0.86277 
C          C       0.51172   0.45628   0.66730 
C          C       0.96002   0.49635   0.60333 
C          C       0.53942   0.04600   0.62090 
C          C       0.32609   0.50582   0.55544 
C          C       0.49418   0.82027   0.55544 
C          C       0.17973   0.67391   0.55544 
C          C       0.50582   0.32609   0.94456 
C          C       0.82027   0.49418   0.94456 
C          C       0.67391   0.17973   0.94456 
C          C       0.31114   0.53472   0.65390 
C          C       0.46528   0.77642   0.65390 
C          C       0.22358   0.68886   0.65390 
C          C       0.53472   0.31114   0.84610 
C          C       0.77642   0.46528   0.84610 
C          C       0.68886   0.22358   0.84610 
C          C       0.26093   0.52316   0.65977 
C          C       0.47684   0.73777   0.65977 
C          C       0.26223   0.73907   0.65977 
C          C       0.52316   0.26093   0.84023 
C          C       0.73777   0.47684   0.84023 
C          C       0.73907   0.26223   0.84023 
C          C       0.24836   0.55266   0.75074 
C          C       0.44734   0.69570   0.75074 
C          C       0.30430   0.75164   0.75074 
C          C       0.55266   0.24836   0.74926 
C          C       0.69570   0.44734   0.74926 
C          C       0.75164   0.30430   0.74926 
C          C       0.28474   0.59319   0.83444 
C          C       0.40681   0.69155   0.83444 
C          C       0.30845   0.71526   0.83444 
C          C       0.59319   0.28474   0.66557 
C          C       0.69155   0.40681   0.66557 
C          C       0.71526   0.30845   0.66557 
C          C       0.33499   0.60382   0.83069 
C          C       0.39618   0.73117   0.83069 
C          C       0.26883   0.66501   0.83069 
C          C       0.60382   0.33499   0.66931 
C          C       0.73117   0.39618   0.66931 
C          C       0.66501   0.26883   0.66931 
C          C       0.34734   0.57453   0.73948 
C          C       0.42547   0.77281   0.73948 
C          C       0.22719   0.65266   0.73948 
C          C       0.57453   0.34734   0.76052 
C          C       0.77281   0.42547   0.76052 
C          C       0.65266   0.22719   0.76052 
N          N       0.52387   0.37271   0.85175 
N          N       0.62729   0.15116   0.85175 
N          N       0.84884   0.47613   0.85175 
N          N       0.37271   0.52387   0.64825 
N          N       0.15116   0.62729   0.64825 
N          N       0.47613   0.84884   0.64825 
H          H       0.38577   0.58275   0.73597 
H          H       0.41725   0.80302   0.73597 
H          H       0.19698   0.61423   0.73597 
H          H       0.58275   0.38577   0.76403 
H          H       0.80302   0.41725   0.76403 
H          H       0.61423   0.19698   0.76403 
H          H       0.21012   0.54471   0.75681 
H          H       0.45529   0.66541   0.75681 
H          H       0.33459   0.78988   0.75681 
H          H       0.54471   0.21012   0.74319 
H          H       0.66541   0.45529   0.74319 
H          H       0.78988   0.33459   0.74319 
H          H       0.33378   0.42183   0.04868 
H          H       0.57763   0.91168   0.08074 
H          H       0.09278   0.66822   0.06122 
H          H       0.42640   0.32991   0.46885 
H          H       0.91897   0.58167   0.40488 
H          H       0.66579   0.08705   0.42245 
H          H       0.36961   0.38474   0.88909 
H          H       0.61472   0.98460   0.92115 
H          H       0.01986   0.63239   0.90163 
H          H       0.38931   0.36574   0.62845 
H          H       0.99189   0.61876   0.56448 
H          H       0.62996   0.01413   0.58204 
H          H       0.45923   0.56845   0.96131 
H          H       0.43101   0.89051   0.99337 
H          H       0.11395   0.54277   0.97385 
H          H       0.57302   0.45536   0.55622 
H          H       0.89780   0.43505   0.49225 
H          H       0.54034   0.10822   0.50982 
H          H       0.49486   0.53213   0.79389 
H          H       0.46733   0.96246   0.82595 
H          H       0.04200   0.50714   0.80643 
H          H       0.53670   0.49099   0.72365 
H          H       0.96975   0.47137   0.65968 
H          H       0.50471   0.03627   0.67724 
H          H       0.29741   0.47116   0.50664 
H          H       0.52884   0.82625   0.50664 
H          H       0.17375   0.70259   0.50664 
H          H       0.47116   0.29741   0.99336 
H          H       0.82625   0.52884   0.99336 
H          H       0.70259   0.17375   0.99336 
C          C       0.73806   0.35828   0.63891 
C          C       0.62066   0.25709   0.61133 
C          C       0.64025   0.38786   0.63544 
C          C       0.37691   0.63839   0.88154 
C          C       0.25690   0.61502   0.87191 
C          C       0.35658   0.73974   0.86922 
H          H       0.74003   0.35954   0.51903 
H          H       0.76424   0.36713   0.72853 
H          H       0.59615   0.21813   0.63279 
H          H       0.62920   0.26846   0.99667 
H          H       0.62902   0.41013   0.69838 
H          H       0.63888   0.38968   0.51581 
H          H       0.37023   0.64018   0.99853 
H          H       0.40031   0.62543   0.83461 
H          H       0.25510   0.61405   0.99180 
H          H       0.22444   0.59348   0.80407 
H          H       0.35668   0.73956   0.98923 
H          H       0.36702   0.77079   0.79552 
O          O       0.74498   0.52045   0.84461 
O          O       0.77348   0.25235   0.84260 
O          O       0.47611   0.23228   0.83340 
O          O       0.51401   0.74121   0.66354 
O          O       0.24824   0.76753   0.66088 
O          O       0.22659   0.48093   0.65297 
C          C       0.82004   0.28640   0.84985 
H          H       0.84268   0.26911   0.85050 
H          H       0.82656   0.30773   0.95040 
H          H       0.82953   0.31060   0.75467 
C          C       0.70987   0.53395   0.84248 
H          H       0.72746   0.57386   0.84752 
H          H       0.68559   0.51794   0.93698 
H          H       0.68856   0.52081   0.74125 
C          C       0.44938   0.18122   0.82656 
H          H       0.41026   0.16896   0.82186 
H          H       0.45698   0.16592   0.92409 
H          H       0.45995   0.16879   0.72836 
C          C       0.22593   0.43715   0.64918 
H          H       0.18805   0.40712   0.64309 
H          H       0.24313   0.43327   0.74859 
H          H       0.24609   0.43614   0.55286 
C          C       0.20644   0.76112   0.65643 
H          H       0.19758   0.78437   0.65758 
H          H       0.17698   0.73545   0.74962 
H          H       0.18376   0.73864   0.55428 
C          C       0.55368   0.77784   0.67036 
H          H       0.58224   0.76782   0.67217 
H          H       0.55588   0.79800   0.77040 
H          H       0.55885   0.80087   0.57467 
