data_crystal

_cell_length_a    22.95440
_cell_length_b    22.95440
_cell_length_c    9.13820
_cell_angle_alpha 90.00000
_cell_angle_beta  90.00000
_cell_angle_gamma 120.00000

_space_group_name_Hall 'P 1'
_space_group_name_H-M_alt  'P 1'

loop_
_symmetry_equiv_pos_as_xyz
'x,y,z' 

loop_
_atom_site_label
_atom_site_type_symbol
_atom_site_fract_x
_atom_site_fract_y
_atom_site_fract_z
C          C       0.47615   0.21793   0.14077 
C          C       0.78207   0.25822   0.14077 
C          C       0.74178   0.52385   0.14077 
C          C       0.21793   0.47615   0.35923 
C          C       0.25822   0.78207   0.35923 
C          C       0.52385   0.74178   0.35923 
C          C       0.51885   0.20690   0.04798 
C          C       0.79310   0.31195   0.04798 
C          C       0.68805   0.48115   0.04798 
C          C       0.20690   0.51885   0.45202 
C          C       0.31195   0.79310   0.45202 
C          C       0.48115   0.68805   0.45202 
C          C       0.57027   0.25948   0.46653 
C          C       0.74052   0.31080   0.46651 
C          C       0.68920   0.42972   0.46651 
C          C       0.25542   0.57268   0.03613 
C          C       0.31080   0.74052   0.03349 
C          C       0.42972   0.68920   0.03349 
C          C       0.57749   0.32437   0.47239 
C          C       0.67563   0.25312   0.47239 
C          C       0.74688   0.42251   0.47239 
C          C       0.32437   0.57749   0.02761 
C          C       0.25312   0.67563   0.02761 
C          C       0.42251   0.74688   0.02761 
C          C       0.53536   0.33515   0.06574 
C          C       0.66485   0.20021   0.06574 
C          C       0.79979   0.46464   0.06574 
C          C       0.33515   0.53536   0.43426 
C          C       0.20021   0.66485   0.43426 
C          C       0.46464   0.79979   0.43426 
C          C       0.48537   0.28316   0.15037 
C          C       0.71684   0.20221   0.15037 
C          C       0.79779   0.51463   0.15037 
C          C       0.28316   0.48537   0.34963 
C          C       0.20221   0.71684   0.34963 
C          C       0.51463   0.79779   0.34963 
C          C       0.44510   0.29820   0.25427 
C          C       0.70180   0.14690   0.25427 
C          C       0.85310   0.55490   0.25427 
C          C       0.29820   0.44510   0.24573 
C          C       0.14690   0.70180   0.24573 
C          C       0.55490   0.85310   0.24573 
C          C       0.36913   0.34348   0.44772 
C          C       0.65652   0.02565   0.44772 
C          C       0.97435   0.63087   0.44772 
C          C       0.34348   0.36913   0.05228 
C          C       0.02565   0.65652   0.05228 
C          C       0.63087   0.97435   0.05228 
C          C       0.47436   0.44923   0.44710 
C          C       0.55077   0.02513   0.44710 
C          C       0.97487   0.52564   0.44710 
C          C       0.44923   0.47436   0.05290 
C          C       0.02513   0.55077   0.05290 
C          C       0.52564   0.97487   0.05290 
C          C       0.43509   0.38358   0.39461 
C          C       0.61642   0.05151   0.39461 
C          C       0.94849   0.56491   0.39461 
C          C       0.38358   0.43509   0.10539 
C          C       0.05151   0.61642   0.10539 
C          C       0.56491   0.94849   0.10539 
H          H       0.51325   0.15743   0.03942 
H          H       0.84257   0.35582   0.03942 
H          H       0.64418   0.48675   0.03942 
H          H       0.15743   0.51325   0.46058 
H          H       0.35582   0.84257   0.46058 
H          H       0.48675   0.64418   0.46058 
H          H       0.54180   0.38506   0.07248 
H          H       0.61494   0.15674   0.07248 
H          H       0.84326   0.45820   0.07248 
H          H       0.38506   0.54180   0.42752 
H          H       0.15674   0.61494   0.42752 
H          H       0.45820   0.84326   0.42752 
H          H       0.40329   0.25736   0.31100 
H          H       0.74264   0.14593   0.31100 
H          H       0.85407   0.59671   0.31100 
H          H       0.25736   0.40329   0.18900 
H          H       0.14593   0.74264   0.18900 
H          H       0.59671   0.85407   0.18900 
H          H       0.52514   0.48065   0.40697 
H          H       0.51935   0.04449   0.40697 
H          H       0.95551   0.47486   0.40697 
H          H       0.48065   0.52514   0.09303 
H          H       0.04449   0.51935   0.09303 
H          H       0.47486   0.95551   0.09303 
H          H       0.33701   0.29296   0.40761 
H          H       0.70704   0.04405   0.40761 
H          H       0.95595   0.66299   0.40761 
H          H       0.29296   0.33701   0.09239 
H          H       0.04405   0.70704   0.09239 
H          H       0.66299   0.95595   0.09239 
N          N       0.46460   0.36024   0.28810 
N          N       0.63976   0.10436   0.28810 
N          N       0.89564   0.53540   0.28810 
N          N       0.36024   0.46460   0.21190 
N          N       0.10436   0.63976   0.21190 
N          N       0.53540   0.89564   0.21190 
C          C       0.75764   0.37359   0.41335 
C          C       0.60665   0.23357   0.40909 
C          C       0.61906   0.39284   0.42425 
C          C       0.38108   0.77093   0.08557 
C          C       0.38685   0.61834   0.11540 
C          C       0.22540   0.61101   0.10172 
H          H       0.59635   0.42059   0.46448 
H          H       0.62095   0.38833   0.30804 
H          H       0.57650   0.18005   0.41821 
H          H       0.61824   0.25457   0.30131 
H          H       0.73381   0.36365   0.30848 
H          H       0.81055   0.39756   0.43393 
H          H       0.37407   0.62607   0.22347 
H          H       0.41522   0.59308   0.12461 
H          H       0.23734   0.61887   0.21580 
H          H       0.17189   0.58342   0.08935 
H          H       0.40522   0.82357   0.06179 
H          H       0.37617   0.75742   0.19882 
O          O       0.74411   0.57658   0.14143 
O          O       0.41950   0.17161   0.13865 
O          O       0.82323   0.24329   0.14178 
O          O       0.23784   0.81873   0.35905 
O          O       0.57626   0.74984   0.36080 
O          O       0.17112   0.41987   0.35727 
C          C       0.38136   0.18861   0.13776 
H          H       0.33183   0.14562   0.13587 
H          H       0.38864   0.21872   0.04268 
H          H       0.38727   0.21769   0.23386 
C          C       0.88211   0.26323   0.14367 
H          H       0.89046   0.22136   0.14345 
H          H       0.90370   0.29262   0.24023 
H          H       0.90507   0.29364   0.04905 
C          C       0.69516   0.58288   0.14011 
H          H       0.71045   0.63522   0.14112 
H          H       0.66505   0.55901   0.23460 
H          H       0.66642   0.56003   0.04342 
C          C       0.17995   0.38215   0.35710 
H          H       0.13323   0.33565   0.35526 
H          H       0.20744   0.38435   0.45352 
H          H       0.20881   0.38538   0.26234 
C          C       0.58545   0.70589   0.36058 
H          H       0.63842   0.72415   0.36228 
H          H       0.56400   0.67645   0.26402 
H          H       0.56263   0.67542   0.45521 
C          C       0.27275   0.87460   0.36067 
H          H       0.24397   0.89960   0.36013 
H          H       0.30447   0.88924   0.26611 
H          H       0.30309   0.88822   0.45730 
C          C       0.47615   0.21793   0.64077 
C          C       0.78207   0.25822   0.64077 
C          C       0.74178   0.52385   0.64077 
C          C       0.21793   0.47615   0.85923 
C          C       0.25822   0.78207   0.85923 
C          C       0.52385   0.74178   0.85923 
C          C       0.51885   0.20690   0.54798 
C          C       0.79310   0.31195   0.54798 
C          C       0.68805   0.48115   0.54798 
C          C       0.20690   0.51885   0.95202 
C          C       0.31195   0.79310   0.95202 
C          C       0.48115   0.68805   0.95202 
C          C       0.57027   0.25948   0.96653 
C          C       0.74052   0.31080   0.96651 
C          C       0.68920   0.42972   0.96651 
C          C       0.25542   0.57268   0.53613 
C          C       0.31080   0.74052   0.53349 
C          C       0.42972   0.68920   0.53349 
C          C       0.57749   0.32437   0.97239 
C          C       0.67563   0.25312   0.97239 
C          C       0.74688   0.42251   0.97239 
C          C       0.32437   0.57749   0.52761 
C          C       0.25312   0.67563   0.52761 
C          C       0.42251   0.74688   0.52761 
C          C       0.53536   0.33515   0.56574 
C          C       0.66485   0.20021   0.56574 
C          C       0.79979   0.46464   0.56574 
C          C       0.33515   0.53536   0.93426 
C          C       0.20021   0.66485   0.93426 
C          C       0.46464   0.79979   0.93426 
C          C       0.48537   0.28316   0.65037 
C          C       0.71684   0.20221   0.65037 
C          C       0.79779   0.51463   0.65037 
C          C       0.28316   0.48537   0.84963 
C          C       0.20221   0.71684   0.84963 
C          C       0.51463   0.79779   0.84963 
C          C       0.44510   0.29820   0.75427 
C          C       0.70180   0.14690   0.75427 
C          C       0.85310   0.55490   0.75427 
C          C       0.29820   0.44510   0.74573 
C          C       0.14690   0.70180   0.74573 
C          C       0.55490   0.85310   0.74573 
C          C       0.36913   0.34348   0.94772 
C          C       0.65652   0.02565   0.94772 
C          C       0.97435   0.63087   0.94772 
C          C       0.34348   0.36913   0.55228 
C          C       0.02565   0.65652   0.55228 
C          C       0.63087   0.97435   0.55228 
C          C       0.47436   0.44923   0.94710 
C          C       0.55077   0.02513   0.94710 
C          C       0.97487   0.52564   0.94710 
C          C       0.44923   0.47436   0.55290 
C          C       0.02513   0.55077   0.55290 
C          C       0.52564   0.97487   0.55290 
C          C       0.43509   0.38358   0.89461 
C          C       0.61642   0.05151   0.89461 
C          C       0.94849   0.56491   0.89461 
C          C       0.38358   0.43509   0.60539 
C          C       0.05151   0.61642   0.60539 
C          C       0.56491   0.94849   0.60539 
H          H       0.51325   0.15743   0.53942 
H          H       0.84257   0.35582   0.53942 
H          H       0.64418   0.48675   0.53942 
H          H       0.15743   0.51325   0.96058 
H          H       0.35582   0.84257   0.96058 
H          H       0.48675   0.64418   0.96058 
H          H       0.54180   0.38506   0.57248 
H          H       0.61494   0.15674   0.57248 
H          H       0.84326   0.45820   0.57248 
H          H       0.38506   0.54180   0.92752 
H          H       0.15674   0.61494   0.92752 
H          H       0.45820   0.84326   0.92752 
H          H       0.40329   0.25736   0.81100 
H          H       0.74264   0.14593   0.81100 
H          H       0.85407   0.59671   0.81100 
H          H       0.25736   0.40329   0.68900 
H          H       0.14593   0.74264   0.68900 
H          H       0.59671   0.85407   0.68900 
H          H       0.52514   0.48065   0.90697 
H          H       0.51935   0.04449   0.90697 
H          H       0.95551   0.47486   0.90697 
H          H       0.48065   0.52514   0.59303 
H          H       0.04449   0.51935   0.59303 
H          H       0.47486   0.95551   0.59303 
H          H       0.33701   0.29296   0.90761 
H          H       0.70704   0.04405   0.90761 
H          H       0.95595   0.66299   0.90761 
H          H       0.29296   0.33701   0.59239 
H          H       0.04405   0.70704   0.59239 
H          H       0.66299   0.95595   0.59239 
N          N       0.46460   0.36024   0.78810 
N          N       0.63976   0.10436   0.78810 
N          N       0.89564   0.53540   0.78810 
N          N       0.36024   0.46460   0.71190 
N          N       0.10436   0.63976   0.71190 
N          N       0.53540   0.89564   0.71190 
C          C       0.75764   0.37359   0.91335 
C          C       0.60665   0.23357   0.90909 
C          C       0.61906   0.39284   0.92425 
C          C       0.38108   0.77093   0.58557 
C          C       0.38685   0.61834   0.61540 
C          C       0.22540   0.61101   0.60172 
H          H       0.59635   0.42059   0.96448 
H          H       0.62095   0.38833   0.80804 
H          H       0.57650   0.18005   0.91821 
H          H       0.61824   0.25457   0.80131 
H          H       0.73381   0.36365   0.80848 
H          H       0.81055   0.39756   0.93393 
H          H       0.37407   0.62607   0.72347 
H          H       0.41522   0.59308   0.62461 
H          H       0.23734   0.61887   0.71580 
H          H       0.17189   0.58342   0.58935 
H          H       0.40522   0.82357   0.56179 
H          H       0.37617   0.75742   0.69882 
O          O       0.74411   0.57658   0.64143 
O          O       0.41950   0.17161   0.63865 
O          O       0.82323   0.24329   0.64178 
O          O       0.23784   0.81873   0.85905 
O          O       0.57626   0.74984   0.86080 
O          O       0.17112   0.41987   0.85727 
C          C       0.38136   0.18861   0.63776 
H          H       0.33183   0.14562   0.63587 
H          H       0.38864   0.21872   0.54268 
H          H       0.38727   0.21769   0.73386 
C          C       0.88211   0.26323   0.64367 
H          H       0.89046   0.22136   0.64345 
H          H       0.90370   0.29262   0.74023 
H          H       0.90507   0.29364   0.54905 
C          C       0.69516   0.58288   0.64011 
H          H       0.71045   0.63522   0.64112 
H          H       0.66505   0.55901   0.73460 
H          H       0.66642   0.56003   0.54342 
C          C       0.17995   0.38215   0.85710 
H          H       0.13323   0.33565   0.85526 
H          H       0.20744   0.38435   0.95352 
H          H       0.20881   0.38538   0.76234 
C          C       0.58545   0.70589   0.86058 
H          H       0.63842   0.72415   0.86228 
H          H       0.56400   0.67645   0.76402 
H          H       0.56263   0.67542   0.95521 
C          C       0.27275   0.87460   0.86067 
H          H       0.24397   0.89960   0.86013 
H          H       0.30447   0.88924   0.76611 
H          H       0.30309   0.88822   0.95730 
