data_ILCOF-1-AA
_audit_creation_date              0000-00-00
_audit_creation_method            'LanYouShi'
_symmetry_space_group_name_H-M    'P1'
_cell_length_a                    34.7756004
_cell_length_b                    34.1643982
_cell_length_c                    6.5787001
_cell_angle_alpha                 90.0000000
_cell_angle_beta                  90.0000000
_cell_angle_gamma                 90.0000000
loop_
_atom_site_label
_atom_site_type_symbol
_atom_site_fract_x
_atom_site_fract_y
_atom_site_fract_z
_atom_site_U_iso_or_equiv
_atom_site_adp_type
_atom_site_occupancy
        C1          C  0.4647000  0.9574000  0.9861999    0.00000       Uiso       1.00
        C2          C  0.4302000  0.0215000  0.9827000    0.00000       Uiso       1.00
        C3          C  0.4650000  0.0840000  0.9879000    0.00000       Uiso       1.00
        C4          C  0.4293000  0.1073000  1.0039999    0.00000       Uiso       1.00
        C5          C  0.4085000  0.1076000  1.1865000    0.00000       Uiso       1.00
        C6          C  0.3754000  0.1304000  1.2048000    0.00000       Uiso       1.00
        C7          C  0.3625000  0.1533000  1.0409000    0.00000       Uiso       1.00
        C8          C  0.3834000  0.1529000  0.8577000    0.00000       Uiso       1.00
        C9          C  0.4167000  0.1302000  0.8399000    0.00000       Uiso       1.00
       C10          C  0.3277000  0.1775000  1.0657001    0.00000       Uiso       1.00
       C11          C  0.7819000  0.2755000  0.9258000    0.00000       Uiso       1.00
       C12          C  0.7659000  0.2625000  0.7430000    0.00000       Uiso       1.00
       C13          C  0.7340999  0.2375000  1.1101000    0.00000       Uiso       1.00
        H1          H  0.4026000  0.0361000  0.9780000    0.00000       Uiso       1.00
        H2          H  0.4181000  0.0904000  1.3151000    0.00000       Uiso       1.00
        H3          H  0.3598000  0.1304000  1.3474998    0.00000       Uiso       1.00
        H4          H  0.3743000  0.1702000  0.7289000    0.00000       Uiso       1.00
        H5          H  0.4327000  0.1303000  0.6984000    0.00000       Uiso       1.00
        H6          H  0.3127000  0.1763000  1.2097000    0.00000       Uiso       1.00
        H7          H  0.7781000  0.2721000  0.6005000    0.00000       Uiso       1.00
        H8          H  0.7220000  0.2290000  1.2541000    0.00000       Uiso       1.00
        N1          N  0.3149000  0.1991000  0.9176000    0.00000       Uiso       1.00
       C14          C  0.9647000  0.4574001  0.9861999    0.00000       Uiso       1.00
       C15          C  0.9302000  0.5215000  0.9827000    0.00000       Uiso       1.00
       C16          C  0.9650000  0.5840000  0.9879000    0.00000       Uiso       1.00
       C17          C  0.9293001  0.6073000  1.0039999    0.00000       Uiso       1.00
       C18          C  0.9085000  0.6076000  1.1865000    0.00000       Uiso       1.00
       C19          C  0.8754000  0.6304000  1.2048000    0.00000       Uiso       1.00
       C20          C  0.8625000  0.6533000  1.0409000    0.00000       Uiso       1.00
       C21          C  0.8834000  0.6529000  0.8577000    0.00000       Uiso       1.00
       C22          C  0.9166999  0.6302000  0.8399000    0.00000       Uiso       1.00
       C23          C  0.8277000  0.6775001  1.0657001    0.00000       Uiso       1.00
       C24          C  0.2819000  0.7755000  0.9258000    0.00000       Uiso       1.00
       C25          C  0.2659000  0.7625000  0.7430000    0.00000       Uiso       1.00
       C26          C  0.2341000  0.7375001  1.1101000    0.00000       Uiso       1.00
        H9          H  0.9026000  0.5361000  0.9780000    0.00000       Uiso       1.00
       H10          H  0.9181000  0.5904000  1.3151000    0.00000       Uiso       1.00
       H11          H  0.8598000  0.6304000  1.3474998    0.00000       Uiso       1.00
       H12          H  0.8742999  0.6702000  0.7289000    0.00000       Uiso       1.00
       H13          H  0.9327000  0.6303000  0.6984000    0.00000       Uiso       1.00
       H14          H  0.8127000  0.6763000  1.2097000    0.00000       Uiso       1.00
       H15          H  0.2781000  0.7721001  0.6005000    0.00000       Uiso       1.00
       H16          H  0.2220000  0.7290000  1.2541000    0.00000       Uiso       1.00
        N2          N  0.8149000  0.6991001  0.9176000    0.00000       Uiso       1.00
       C27          C  0.5353000  0.0426000  0.9861999    0.00000       Uiso       1.00
       C28          C  0.5698000  0.9785001  0.9827000    0.00000       Uiso       1.00
       C29          C  0.5350000  0.9160000  0.9879000    0.00000       Uiso       1.00
       C30          C  0.5706999  0.8927001  1.0039999    0.00000       Uiso       1.00
       C31          C  0.5915000  0.8924000  1.1865000    0.00000       Uiso       1.00
       C32          C  0.6246000  0.8696001  1.2048000    0.00000       Uiso       1.00
       C33          C  0.6375000  0.8467001  1.0409000    0.00000       Uiso       1.00
       C34          C  0.6166000  0.8471001  0.8577000    0.00000       Uiso       1.00
       C35          C  0.5833000  0.8698001  0.8399000    0.00000       Uiso       1.00
       C36          C  0.6723000  0.8225001  1.0657001    0.00000       Uiso       1.00
       C37          C  0.2181000  0.7245001  0.9258000    0.00000       Uiso       1.00
       C38          C  0.2341000  0.7375001  0.7430000    0.00000       Uiso       1.00
       C39          C  0.2659000  0.7625000  1.1101000    0.00000       Uiso       1.00
       H17          H  0.5974000  0.9639000  0.9780000    0.00000       Uiso       1.00
       H18          H  0.5819000  0.9096000  1.3151000    0.00000       Uiso       1.00
       H19          H  0.6402000  0.8696001  1.3474998    0.00000       Uiso       1.00
       H20          H  0.6257000  0.8298000  0.7289000    0.00000       Uiso       1.00
       H21          H  0.5673000  0.8697000  0.6984000    0.00000       Uiso       1.00
       H22          H  0.6873000  0.8237001  1.2097000    0.00000       Uiso       1.00
       H23          H  0.2219000  0.7279000  0.6005000    0.00000       Uiso       1.00
       H24          H  0.2780000  0.7710000  1.2541000    0.00000       Uiso       1.00
        N3          N  0.6851000  0.8009000  0.9176000    0.00000       Uiso       1.00
       C40          C  0.0353000  0.5426000  0.9861999    0.00000       Uiso       1.00
       C41          C  0.0698000  0.4785000  0.9827000    0.00000       Uiso       1.00
       C42          C  0.0350000  0.4160000  0.9879000    0.00000       Uiso       1.00
       C43          C  0.0707000  0.3927000  1.0039999    0.00000       Uiso       1.00
       C44          C  0.0915000  0.3924000  1.1865000    0.00000       Uiso       1.00
       C45          C  0.1246000  0.3696000  1.2048000    0.00000       Uiso       1.00
       C46          C  0.1375000  0.3467000  1.0409000    0.00000       Uiso       1.00
       C47          C  0.1166000  0.3471000  0.8577000    0.00000       Uiso       1.00
       C48          C  0.0833000  0.3698000  0.8399000    0.00000       Uiso       1.00
       C49          C  0.1723000  0.3225000  1.0657001    0.00000       Uiso       1.00
       C50          C  0.7181000  0.2245000  0.9258000    0.00000       Uiso       1.00
       C51          C  0.7340999  0.2375000  0.7430000    0.00000       Uiso       1.00
       C52          C  0.7659000  0.2625000  1.1101000    0.00000       Uiso       1.00
       H25          H  0.0974000  0.4639000  0.9780000    0.00000       Uiso       1.00
       H26          H  0.0819000  0.4096000  1.3151000    0.00000       Uiso       1.00
       H27          H  0.1402000  0.3696000  1.3474998    0.00000       Uiso       1.00
       H28          H  0.1257000  0.3298000  0.7289000    0.00000       Uiso       1.00
       H29          H  0.0673000  0.3697000  0.6984000    0.00000       Uiso       1.00
       H30          H  0.1873000  0.3237000  1.2097000    0.00000       Uiso       1.00
       H31          H  0.7219000  0.2279000  0.6005000    0.00000       Uiso       1.00
       H32          H  0.7780000  0.2710000  1.2541000    0.00000       Uiso       1.00
        N4          N  0.1851000  0.3009000  0.9176000    0.00000       Uiso       1.00
       C53          C  0.4647000  0.0426000  0.9861999    0.00000       Uiso       1.00
       C54          C  0.4302000  0.9785001  0.9827000    0.00000       Uiso       1.00
       C55          C  0.4650000  0.9160000  0.9879000    0.00000       Uiso       1.00
       C56          C  0.4293000  0.8927001  1.0039999    0.00000       Uiso       1.00
       C57          C  0.4085000  0.8924000  1.1865000    0.00000       Uiso       1.00
       C58          C  0.3754000  0.8696001  1.2048000    0.00000       Uiso       1.00
       C59          C  0.3625000  0.8467001  1.0409000    0.00000       Uiso       1.00
       C60          C  0.3834000  0.8471001  0.8577000    0.00000       Uiso       1.00
       C61          C  0.4167000  0.8698001  0.8399000    0.00000       Uiso       1.00
       C62          C  0.3277000  0.8225001  1.0657001    0.00000       Uiso       1.00
       C63          C  0.7819000  0.7245001  0.9258000    0.00000       Uiso       1.00
       C64          C  0.7659000  0.7375001  0.7430000    0.00000       Uiso       1.00
       C65          C  0.7340999  0.7625000  1.1101000    0.00000       Uiso       1.00
       H33          H  0.4026000  0.9639000  0.9780000    0.00000       Uiso       1.00
       H34          H  0.4181000  0.9096000  1.3151000    0.00000       Uiso       1.00
       H35          H  0.3598000  0.8696001  1.3474998    0.00000       Uiso       1.00
       H36          H  0.3743000  0.8298000  0.7289000    0.00000       Uiso       1.00
       H37          H  0.4327000  0.8697000  0.6984000    0.00000       Uiso       1.00
       H38          H  0.3127000  0.8237001  1.2097000    0.00000       Uiso       1.00
       H39          H  0.7781000  0.7279000  0.6005000    0.00000       Uiso       1.00
       H40          H  0.7220000  0.7710000  1.2541000    0.00000       Uiso       1.00
        N5          N  0.3149000  0.8009000  0.9176000    0.00000       Uiso       1.00
       C66          C  0.9647000  0.5426000  0.9861999    0.00000       Uiso       1.00
       C67          C  0.9302000  0.4785000  0.9827000    0.00000       Uiso       1.00
       C68          C  0.9650000  0.4160000  0.9879000    0.00000       Uiso       1.00
       C69          C  0.9293001  0.3927000  1.0039999    0.00000       Uiso       1.00
       C70          C  0.9085000  0.3924000  1.1865000    0.00000       Uiso       1.00
       C71          C  0.8754000  0.3696000  1.2048000    0.00000       Uiso       1.00
       C72          C  0.8625000  0.3467000  1.0409000    0.00000       Uiso       1.00
       C73          C  0.8834000  0.3471000  0.8577000    0.00000       Uiso       1.00
       C74          C  0.9166999  0.3698000  0.8399000    0.00000       Uiso       1.00
       C75          C  0.8277000  0.3225000  1.0657001    0.00000       Uiso       1.00
       C76          C  0.2819000  0.2245000  0.9258000    0.00000       Uiso       1.00
       C77          C  0.2659000  0.2375000  0.7430000    0.00000       Uiso       1.00
       C78          C  0.2341000  0.2625000  1.1101000    0.00000       Uiso       1.00
       H41          H  0.9026000  0.4639000  0.9780000    0.00000       Uiso       1.00
       H42          H  0.9181000  0.4096000  1.3151000    0.00000       Uiso       1.00
       H43          H  0.8598000  0.3696000  1.3474998    0.00000       Uiso       1.00
       H44          H  0.8742999  0.3298000  0.7289000    0.00000       Uiso       1.00
       H45          H  0.9327000  0.3697000  0.6984000    0.00000       Uiso       1.00
       H46          H  0.8127000  0.3237000  1.2097000    0.00000       Uiso       1.00
       H47          H  0.2781000  0.2279000  0.6005000    0.00000       Uiso       1.00
       H48          H  0.2220000  0.2710000  1.2541000    0.00000       Uiso       1.00
        N6          N  0.8149000  0.3009000  0.9176000    0.00000       Uiso       1.00
       C79          C  0.5353000  0.9574000  0.9861999    0.00000       Uiso       1.00
       C80          C  0.5698000  0.0215000  0.9827000    0.00000       Uiso       1.00
       C81          C  0.5350000  0.0840000  0.9879000    0.00000       Uiso       1.00
       C82          C  0.5706999  0.1073000  1.0039999    0.00000       Uiso       1.00
       C83          C  0.5915000  0.1076000  1.1865000    0.00000       Uiso       1.00
       C84          C  0.6246000  0.1304000  1.2048000    0.00000       Uiso       1.00
       C85          C  0.6375000  0.1533000  1.0409000    0.00000       Uiso       1.00
       C86          C  0.6166000  0.1529000  0.8577000    0.00000       Uiso       1.00
       C87          C  0.5833000  0.1302000  0.8399000    0.00000       Uiso       1.00
       C88          C  0.6723000  0.1775000  1.0657001    0.00000       Uiso       1.00
       C89          C  0.2181000  0.2755000  0.9258000    0.00000       Uiso       1.00
       C90          C  0.2341000  0.2625000  0.7430000    0.00000       Uiso       1.00
       C91          C  0.2659000  0.2375000  1.1101000    0.00000       Uiso       1.00
       H49          H  0.5974000  0.0361000  0.9780000    0.00000       Uiso       1.00
       H50          H  0.5819000  0.0904000  1.3151000    0.00000       Uiso       1.00
       H51          H  0.6402000  0.1304000  1.3474998    0.00000       Uiso       1.00
       H52          H  0.6257000  0.1702000  0.7289000    0.00000       Uiso       1.00
       H53          H  0.5673000  0.1303000  0.6984000    0.00000       Uiso       1.00
       H54          H  0.6873000  0.1763000  1.2097000    0.00000       Uiso       1.00
       H55          H  0.2219000  0.2721000  0.6005000    0.00000       Uiso       1.00
       H56          H  0.2780000  0.2290000  1.2541000    0.00000       Uiso       1.00
        N7          N  0.6851000  0.1991000  0.9176000    0.00000       Uiso       1.00
       C92          C  0.0353000  0.4574001  0.9861999    0.00000       Uiso       1.00
       C93          C  0.0698000  0.5215000  0.9827000    0.00000       Uiso       1.00
       C94          C  0.0350000  0.5840000  0.9879000    0.00000       Uiso       1.00
       C95          C  0.0707000  0.6073000  1.0039999    0.00000       Uiso       1.00
       C96          C  0.0915000  0.6076000  1.1865000    0.00000       Uiso       1.00
       C97          C  0.1246000  0.6304000  1.2048000    0.00000       Uiso       1.00
       C98          C  0.1375000  0.6533000  1.0409000    0.00000       Uiso       1.00
       C99          C  0.1166000  0.6529000  0.8577000    0.00000       Uiso       1.00
      C100          C  0.0833000  0.6302000  0.8399000    0.00000       Uiso       1.00
      C101          C  0.1723000  0.6775001  1.0657001    0.00000       Uiso       1.00
      C102          C  0.7181000  0.7755000  0.9258000    0.00000       Uiso       1.00
      C103          C  0.7340999  0.7625000  0.7430000    0.00000       Uiso       1.00
      C104          C  0.7659000  0.7375001  1.1101000    0.00000       Uiso       1.00
       H57          H  0.0974000  0.5361000  0.9780000    0.00000       Uiso       1.00
       H58          H  0.0819000  0.5904000  1.3151000    0.00000       Uiso       1.00
       H59          H  0.1402000  0.6304000  1.3474998    0.00000       Uiso       1.00
       H60          H  0.1257000  0.6702000  0.7289000    0.00000       Uiso       1.00
       H61          H  0.0673000  0.6303000  0.6984000    0.00000       Uiso       1.00
       H62          H  0.1873000  0.6763000  1.2097000    0.00000       Uiso       1.00
       H63          H  0.7219000  0.7721001  0.6005000    0.00000       Uiso       1.00
       H64          H  0.7780000  0.7290000  1.2541000    0.00000       Uiso       1.00
        N8          N  0.1851000  0.6991001  0.9176000    0.00000       Uiso       1.00
      C105          C  0.5000000  0.1041000  0.9858000    0.00000       Uiso       1.00
      C106          C  0.5000000  0.9781000  0.9854000    0.00000       Uiso       1.00
       H65          H  0.5000000  0.1359000  0.9902999    0.00000       Uiso       1.00
      C107          C  0.0000000  0.6041000  0.9858000    0.00000       Uiso       1.00
      C108          C  0.0000000  0.4781000  0.9854000    0.00000       Uiso       1.00
       H66          H  0.0000000  0.6359000  0.9902999    0.00000       Uiso       1.00
      C109          C  0.5000000  0.8959000  0.9858000    0.00000       Uiso       1.00
      C110          C  0.5000000  0.0219000  0.9854000    0.00000       Uiso       1.00
       H67          H  0.5000000  0.8641000  0.9902999    0.00000       Uiso       1.00
      C111          C  0.0000000  0.3959000  0.9858000    0.00000       Uiso       1.00
      C112          C  0.0000000  0.5219001  0.9854000    0.00000       Uiso       1.00
       H68          H  0.0000000  0.3641000  0.9902999    0.00000       Uiso       1.00
