data_crystal

_cell_length_a    27.46940
_cell_length_b    27.46940
_cell_length_c    18.80680
_cell_angle_alpha 90.00000
_cell_angle_beta  90.00000
_cell_angle_gamma 90.00000

_space_group_name_Hall 'P 1'
_space_group_name_H-M_alt 'P 1'

loop_
_symmetry_equiv_pos_as_xyz
 'x,y,z'

loop_
_atom_site_label
_atom_site_type_symbol
_atom_site_fract_x
_atom_site_fract_y
_atom_site_fract_z
C          C       0.00000   0.75000   0.43750
C          C       0.50000   0.75000   0.18750
C          C       0.25000   0.50000   0.06250
C          C       0.25000   0.00000   0.31250
C          C       0.00000   0.75000   0.18750
C          C       0.50000   0.75000   0.43750
C          C       0.75000   0.00000   0.06250
C          C       0.75000   0.50000   0.31250
C          C       0.50000   0.25000   0.18750
C          C       0.00000   0.25000   0.43750
C          C       0.75000   0.00000   0.31250
C          C       0.75000   0.50000   0.06250
C          C       0.50000   0.25000   0.43750
C          C       0.00000   0.25000   0.18750
C          C       0.25000   0.50000   0.31250
C          C       0.25000   0.00000   0.06250
C          C       0.03783   0.74527   0.36777
C          C       0.46217   0.75473   0.11777
C          C       0.25473   0.53783   0.49277
C          C       0.24527   0.96217   0.24277
C          C       0.96217   0.75473   0.25723
C          C       0.53783   0.74527   0.00723
C          C       0.74527   0.96217   0.13223
C          C       0.75473   0.53783   0.38223
C          C       0.53783   0.24527   0.11777
C          C       0.96217   0.25473   0.36777
C          C       0.75473   0.03783   0.24277
C          C       0.74527   0.46217   0.49277
C          C       0.46217   0.25473   0.00723
C          C       0.03783   0.24527   0.25723
C          C       0.24527   0.46217   0.38223
C          C       0.25473   0.03783   0.13223
C          C       0.04823   0.77831   0.30399
C          C       0.45177   0.72169   0.05399
C          C       0.22169   0.54823   0.42899
C          C       0.27831   0.95177   0.17899
C          C       0.95177   0.72169   0.32101
C          C       0.54823   0.77831   0.07101
C          C       0.77831   0.95177   0.19601
C          C       0.72169   0.54823   0.44601
C          C       0.54823   0.27831   0.05399
C          C       0.95177   0.22169   0.30399
C          C       0.72169   0.04823   0.17899
C          C       0.77831   0.45177   0.42899
C          C       0.45177   0.22169   0.07101
C          C       0.04823   0.27831   0.32101
C          C       0.27831   0.45177   0.44601
C          C       0.22169   0.04823   0.19601
C          C       0.08460   0.77720   0.24800
C          C       0.41540   0.72280   0.49800
C          C       0.22280   0.58460   0.37300
C          C       0.27720   0.91540   0.12301
C          C       0.91540   0.72280   0.37700
C          C       0.58460   0.77720   0.12700
C          C       0.77720   0.91540   0.25200
C          C       0.72280   0.58460   0.00200
C          C       0.58460   0.27720   0.49800
C          C       0.91540   0.22280   0.24800
C          C       0.72280   0.08460   0.12301
C          C       0.77720   0.41540   0.37300
C          C       0.41540   0.22280   0.12700
C          C       0.08460   0.27720   0.37700
C          C       0.27720   0.41540   0.00200
C          C       0.22280   0.08460   0.25200
C          C       0.11054   0.74228   0.25116
C          C       0.38946   0.75772   0.00116
C          C       0.25772   0.61054   0.37616
C          C       0.24228   0.88946   0.12616
C          C       0.88946   0.75772   0.37384
C          C       0.61054   0.74228   0.12384
C          C       0.74228   0.88946   0.24885
C          C       0.75772   0.61054   0.49884
C          C       0.61054   0.24228   0.00116
C          C       0.88946   0.25772   0.25116
C          C       0.75772   0.11054   0.12616
C          C       0.74228   0.38946   0.37616
C          C       0.38946   0.25772   0.12384
C          C       0.11054   0.24228   0.37384
C          C       0.24228   0.38946   0.49884
C          C       0.25772   0.11054   0.24885
B          B       0.15374   0.74266   0.19817
B          B       0.34626   0.75734   0.44817
B          B       0.25734   0.65374   0.32317
B          B       0.24266   0.84626   0.07317
B          B       0.84626   0.75734   0.42683
B          B       0.65374   0.74266   0.17683
B          B       0.74266   0.84626   0.30183
B          B       0.75734   0.65374   0.05183
B          B       0.65374   0.24266   0.44817
B          B       0.84626   0.25734   0.19817
B          B       0.75734   0.15374   0.07317
B          B       0.74266   0.34626   0.32317
B          B       0.34626   0.25734   0.17683
B          B       0.15374   0.24266   0.42683
B          B       0.24266   0.34626   0.05183
B          B       0.25734   0.15374   0.30183
O          O       0.17025   0.77954   0.14824
O          O       0.32975   0.72046   0.39824
O          O       0.22046   0.67025   0.27324
O          O       0.27954   0.82975   0.02324
O          O       0.82975   0.72046   0.47676
O          O       0.67025   0.77954   0.22676
O          O       0.77954   0.82975   0.35176
O          O       0.72046   0.67025   0.10176
O          O       0.67025   0.27954   0.39824
O          O       0.82975   0.22046   0.14824
O          O       0.72046   0.17025   0.02324
O          O       0.77954   0.32975   0.27324
O          O       0.32975   0.22046   0.22676
O          O       0.17025   0.27954   0.47676
O          O       0.27954   0.32975   0.10176
O          O       0.22046   0.17025   0.35176
C          C       0.21078   0.76691   0.13253
C          C       0.28922   0.73309   0.38253
C          C       0.23309   0.71078   0.25753
C          C       0.26691   0.78922   0.00753
C          C       0.78922   0.73309   0.49247
C          C       0.71078   0.76691   0.24247
C          C       0.76691   0.78922   0.36747
C          C       0.73309   0.71078   0.11748
C          C       0.71078   0.26691   0.38253
C          C       0.78922   0.23309   0.13253
C          C       0.73309   0.21078   0.00753
C          C       0.76691   0.28922   0.25753
C          C       0.28922   0.23309   0.24247
C          C       0.21078   0.26691   0.49247
C          C       0.26691   0.28922   0.11748
C          C       0.23309   0.21078   0.36747
C          C       0.24195   0.79082   0.08884
C          C       0.25805   0.70918   0.33885
C          C       0.20918   0.74195   0.21385
C          C       0.29082   0.75805   0.46385
C          C       0.75805   0.70918   0.03616
C          C       0.74195   0.79082   0.28615
C          C       0.79082   0.75805   0.41115
C          C       0.70918   0.74195   0.16115
C          C       0.74195   0.29082   0.33885
C          C       0.75805   0.20918   0.08884
C          C       0.70918   0.24195   0.46385
C          C       0.79082   0.25805   0.21385
C          C       0.25805   0.20918   0.28615
C          C       0.24195   0.29082   0.03616
C          C       0.29082   0.25805   0.16115
C          C       0.20918   0.24195   0.41115
C          C       0.00000   0.75000   0.93750
C          C       0.50000   0.75000   0.68750
C          C       0.25000   0.50000   0.56250
C          C       0.25000   0.00000   0.81250
C          C       0.00000   0.75000   0.68750
C          C       0.50000   0.75000   0.93750
C          C       0.75000   0.00000   0.56250
C          C       0.75000   0.50000   0.81250
C          C       0.50000   0.25000   0.68750
C          C       0.00000   0.25000   0.93750
C          C       0.75000   0.00000   0.81250
C          C       0.75000   0.50000   0.56250
C          C       0.50000   0.25000   0.93750
C          C       0.00000   0.25000   0.68750
C          C       0.25000   0.50000   0.81250
C          C       0.25000   0.00000   0.56250
C          C       0.03783   0.74527   0.86777
C          C       0.46217   0.75473   0.61777
C          C       0.25473   0.53783   0.99277
C          C       0.24527   0.96217   0.74277
C          C       0.96217   0.75473   0.75723
C          C       0.53783   0.74527   0.50723
C          C       0.74527   0.96217   0.63223
C          C       0.75473   0.53783   0.88223
C          C       0.53783   0.24527   0.61777
C          C       0.96217   0.25473   0.86777
C          C       0.75473   0.03783   0.74277
C          C       0.74527   0.46217   0.99277
C          C       0.46217   0.25473   0.50723
C          C       0.03783   0.24527   0.75723
C          C       0.24527   0.46217   0.88223
C          C       0.25473   0.03783   0.63223
C          C       0.04823   0.77831   0.80399
C          C       0.45177   0.72169   0.55399
C          C       0.22169   0.54823   0.92899
C          C       0.27831   0.95177   0.67899
C          C       0.95177   0.72169   0.82101
C          C       0.54823   0.77831   0.57101
C          C       0.77831   0.95177   0.69601
C          C       0.72169   0.54823   0.94601
C          C       0.54823   0.27831   0.55399
C          C       0.95177   0.22169   0.80399
C          C       0.72169   0.04823   0.67899
C          C       0.77831   0.45177   0.92899
C          C       0.45177   0.22169   0.57101
C          C       0.04823   0.27831   0.82101
C          C       0.27831   0.45177   0.94601
C          C       0.22169   0.04823   0.69601
C          C       0.08460   0.77720   0.74801
C          C       0.41540   0.72280   0.99801
C          C       0.22280   0.58460   0.87300
C          C       0.27720   0.91540   0.62301
C          C       0.91540   0.72280   0.87700
C          C       0.58460   0.77720   0.62699
C          C       0.77720   0.91540   0.75200
C          C       0.72280   0.58460   0.50199
C          C       0.58460   0.27720   0.99801
C          C       0.91540   0.22280   0.74801
C          C       0.72280   0.08460   0.62301
C          C       0.77720   0.41540   0.87300
C          C       0.41540   0.22280   0.62699
C          C       0.08460   0.27720   0.87700
C          C       0.27720   0.41540   0.50199
C          C       0.22280   0.08460   0.75200
C          C       0.11054   0.74228   0.75116
C          C       0.38946   0.75772   0.50116
C          C       0.25772   0.61054   0.87616
C          C       0.24228   0.88946   0.62616
C          C       0.88946   0.75772   0.87384
C          C       0.61054   0.74228   0.62384
C          C       0.74228   0.88946   0.74884
C          C       0.75772   0.61054   0.99884
C          C       0.61054   0.24228   0.50116
C          C       0.88946   0.25772   0.75116
C          C       0.75772   0.11054   0.62616
C          C       0.74228   0.38946   0.87616
C          C       0.38946   0.25772   0.62384
C          C       0.11054   0.24228   0.87384
C          C       0.24228   0.38946   0.99884
C          C       0.25772   0.11054   0.74884
B          B       0.15374   0.74266   0.69817
B          B       0.34626   0.75734   0.94817
B          B       0.25734   0.65374   0.82317
B          B       0.24266   0.84626   0.57317
B          B       0.84626   0.75734   0.92683
B          B       0.65374   0.74266   0.67683
B          B       0.74266   0.84626   0.80183
B          B       0.75734   0.65374   0.55183
B          B       0.65374   0.24266   0.94817
B          B       0.84626   0.25734   0.69817
B          B       0.75734   0.15374   0.57317
B          B       0.74266   0.34626   0.82317
B          B       0.34626   0.25734   0.67683
B          B       0.15374   0.24266   0.92683
B          B       0.24266   0.34626   0.55183
B          B       0.25734   0.15374   0.80183
O          O       0.17025   0.77954   0.64825
O          O       0.32975   0.72046   0.89824
O          O       0.22046   0.67025   0.77324
O          O       0.27954   0.82975   0.52324
O          O       0.82975   0.72046   0.97676
O          O       0.67025   0.77954   0.72676
O          O       0.77954   0.82975   0.85176
O          O       0.72046   0.67025   0.60176
O          O       0.67025   0.27954   0.89824
O          O       0.82975   0.22046   0.64825
O          O       0.72046   0.17025   0.52324
O          O       0.77954   0.32975   0.77324
O          O       0.32975   0.22046   0.72676
O          O       0.17025   0.27954   0.97676
O          O       0.27954   0.32975   0.60176
O          O       0.22046   0.17025   0.85176
C          C       0.21078   0.76691   0.63253
C          C       0.28922   0.73309   0.88253
C          C       0.23309   0.71078   0.75753
C          C       0.26691   0.78922   0.50753
C          C       0.78922   0.73309   0.99247
C          C       0.71078   0.76691   0.74247
C          C       0.76691   0.78922   0.86747
C          C       0.73309   0.71078   0.61747
C          C       0.71078   0.26691   0.88253
C          C       0.78922   0.23309   0.63253
C          C       0.73309   0.21078   0.50753
C          C       0.76691   0.28922   0.75753
C          C       0.28922   0.23309   0.74247
C          C       0.21078   0.26691   0.99247
C          C       0.26691   0.28922   0.61747
C          C       0.23309   0.21078   0.86747
C          C       0.24195   0.79082   0.58884
C          C       0.25805   0.70918   0.83884
C          C       0.20918   0.74195   0.71385
C          C       0.29082   0.75805   0.96385
C          C       0.75805   0.70918   0.53615
C          C       0.74195   0.79082   0.78616
C          C       0.79082   0.75805   0.91115
C          C       0.70918   0.74195   0.66115
C          C       0.74195   0.29082   0.83884
C          C       0.75805   0.20918   0.58884
C          C       0.70918   0.24195   0.96385
C          C       0.79082   0.25805   0.71385
C          C       0.25805   0.20918   0.78616
C          C       0.24195   0.29082   0.53615
C          C       0.29082   0.25805   0.66115
C          C       0.20918   0.24195   0.91115
