data_crystal

_cell_length_a    19.28680
_cell_length_b    19.28680
_cell_length_c    24.75040
_cell_angle_alpha 90.00000
_cell_angle_beta  90.00000
_cell_angle_gamma 90.00000

_space_group_name_Hall 'P 1'
_space_group_name_H-M_alt 'P 1'

loop_
_symmetry_equiv_pos_as_xyz
 'x,y,z'

loop_
_atom_site_label
_atom_site_type_symbol
_atom_site_fract_x
_atom_site_fract_y
_atom_site_fract_z
C          C       0.75000   0.25000   0.00000
C          C       0.25000   0.75000   0.00000
C          C       0.25000   0.25000   0.00000
C          C       0.75000   0.75000   0.00000
C          C       0.70591   0.29477   0.03887
C          C       0.29409   0.70523   0.03887
C          C       0.20523   0.20591   0.03887
C          C       0.79477   0.79409   0.03887
C          C       0.79409   0.20523   0.46113
C          C       0.20591   0.79477   0.46113
C          C       0.29477   0.29409   0.46113
C          C       0.70523   0.70591   0.46113
C          C       0.65331   0.26289   0.06991
C          C       0.34669   0.73711   0.06991
C          C       0.23711   0.15331   0.06991
C          C       0.76289   0.84669   0.06991
C          C       0.84669   0.23711   0.43009
C          C       0.15331   0.76289   0.43009
C          C       0.26289   0.34669   0.43009
C          C       0.73711   0.65331   0.43009
C          C       0.61530   0.30046   0.10795
C          C       0.38470   0.69954   0.10795
C          C       0.19954   0.11530   0.10795
C          C       0.80046   0.88470   0.10795
C          C       0.88470   0.19954   0.39205
C          C       0.11530   0.80046   0.39205
C          C       0.30046   0.38470   0.39205
C          C       0.69954   0.61530   0.39205
C          C       0.63015   0.37048   0.11721
C          C       0.36985   0.62952   0.11721
C          C       0.12952   0.13015   0.11721
C          C       0.87048   0.86985   0.11721
C          C       0.86985   0.12952   0.38279
C          C       0.13015   0.87048   0.38279
C          C       0.37048   0.36985   0.38279
C          C       0.62952   0.63015   0.38279
B          B       0.58793   0.41243   0.16007
B          B       0.41207   0.58757   0.16007
B          B       0.08757   0.08793   0.16007
B          B       0.91243   0.91207   0.16007
B          B       0.91207   0.08757   0.33993
B          B       0.08793   0.91243   0.33993
B          B       0.41243   0.41207   0.33993
B          B       0.58757   0.58793   0.33993
O          O       0.53171   0.38194   0.19209
O          O       0.46829   0.61806   0.19209
O          O       0.11806   0.03171   0.19209
O          O       0.88194   0.96829   0.19209
O          O       0.96829   0.11806   0.30791
O          O       0.03171   0.88194   0.30791
O          O       0.38194   0.46829   0.30791
O          O       0.61806   0.53171   0.30791
C          C       0.51253   0.43876   0.22282
C          C       0.48747   0.56124   0.22282
C          C       0.06124   0.01253   0.22282
C          C       0.93876   0.98747   0.22282
C          C       0.98747   0.06124   0.27718
C          C       0.01253   0.93876   0.27718
C          C       0.43876   0.48747   0.27718
C          C       0.56124   0.51253   0.27718
C          C       0.45973   0.43984   0.26166
C          C       0.54027   0.56016   0.26166
C          C       0.06016   0.95973   0.26166
C          C       0.93984   0.04027   0.26166
C          C       0.04027   0.06016   0.23834
C          C       0.95973   0.93984   0.23834
C          C       0.43984   0.54027   0.23834
C          C       0.56016   0.45973   0.23834
C          C       0.75000   0.25000   0.50000
C          C       0.25000   0.75000   0.50000
C          C       0.25000   0.25000   0.50000
C          C       0.75000   0.75000   0.50000
C          C       0.70591   0.29477   0.53887
C          C       0.29409   0.70523   0.53887
C          C       0.20523   0.20591   0.53887
C          C       0.79477   0.79409   0.53887
C          C       0.79409   0.20523   0.96113
C          C       0.20591   0.79477   0.96113
C          C       0.29477   0.29409   0.96113
C          C       0.70523   0.70591   0.96113
C          C       0.65331   0.26289   0.56991
C          C       0.34669   0.73711   0.56991
C          C       0.23711   0.15331   0.56991
C          C       0.76289   0.84669   0.56991
C          C       0.84669   0.23711   0.93009
C          C       0.15331   0.76289   0.93009
C          C       0.26289   0.34669   0.93009
C          C       0.73711   0.65331   0.93009
C          C       0.61530   0.30046   0.60795
C          C       0.38470   0.69954   0.60795
C          C       0.19954   0.11530   0.60795
C          C       0.80046   0.88470   0.60795
C          C       0.88470   0.19954   0.89205
C          C       0.11530   0.80046   0.89205
C          C       0.30046   0.38470   0.89205
C          C       0.69954   0.61530   0.89205
C          C       0.63015   0.37048   0.61721
C          C       0.36985   0.62952   0.61721
C          C       0.12952   0.13015   0.61721
C          C       0.87048   0.86985   0.61721
C          C       0.86985   0.12952   0.88279
C          C       0.13015   0.87048   0.88279
C          C       0.37048   0.36985   0.88279
C          C       0.62952   0.63015   0.88279
B          B       0.58793   0.41243   0.66008
B          B       0.41207   0.58757   0.66008
B          B       0.08757   0.08793   0.66008
B          B       0.91243   0.91207   0.66008
B          B       0.91207   0.08757   0.83992
B          B       0.08793   0.91243   0.83992
B          B       0.41243   0.41207   0.83992
B          B       0.58757   0.58793   0.83992
O          O       0.53171   0.38194   0.69209
O          O       0.46829   0.61806   0.69209
O          O       0.11806   0.03171   0.69209
O          O       0.88194   0.96829   0.69209
O          O       0.96829   0.11806   0.80791
O          O       0.03171   0.88194   0.80791
O          O       0.38194   0.46829   0.80791
O          O       0.61806   0.53171   0.80791
C          C       0.51253   0.43876   0.72282
C          C       0.48747   0.56124   0.72282
C          C       0.06124   0.01253   0.72282
C          C       0.93876   0.98747   0.72282
C          C       0.98747   0.06124   0.77718
C          C       0.01253   0.93876   0.77718
C          C       0.43876   0.48747   0.77718
C          C       0.56124   0.51253   0.77718
C          C       0.45973   0.43984   0.76166
C          C       0.54027   0.56016   0.76166
C          C       0.06016   0.95973   0.76166
C          C       0.93984   0.04027   0.76166
C          C       0.04027   0.06016   0.73834
C          C       0.95973   0.93984   0.73834
C          C       0.43984   0.54027   0.73834
C          C       0.56016   0.45973   0.73834
