data_crystal
 
_cell_length_a    34.24350
_cell_length_b    34.69470
_cell_length_c    12.53940
_cell_angle_alpha 90.00000
_cell_angle_beta  90.00000
_cell_angle_gamma 90.00000
 
_symmetry_space_group_name_Hall 'P 1'
_symmetry_space_group_name_H-M  'P 1'
 
loop_
_symmetry_equiv_pos_as_xyz
 'x,y,z' 
 
loop_
_atom_site_label
_atom_site_type_symbol
_atom_site_fract_x
_atom_site_fract_y
_atom_site_fract_z
_atom_site_charge
C          C       0.46412   0.45908   0.49397   0.0000000000
C          C       0.42896   0.52005   0.49036   0.0000000000
C          C       0.46438   0.58173   0.49511   0.0000000000
C          C       0.42814   0.60487   0.50206   0.0000000000
C          C       0.40462   0.60286   0.59347   0.0000000000
C          C       0.37115   0.62569   0.60190   0.0000000000
C          C       0.36077   0.65100   0.51931   0.0000000000
C          C       0.38445   0.65304   0.42778   0.0000000000
C          C       0.41799   0.63025   0.41955   0.0000000000
C          C       0.32569   0.67537   0.53128   0.0000000000
C          C       0.78153   0.77618   0.45887   0.0000000000
C          C       0.76575   0.76283   0.36279   0.0000000000
C          C       0.73432   0.73710   0.55572   0.0000000000
H          H       0.40100   0.53451   0.48634   0.0000000000
H          H       0.41238   0.58379   0.65851   0.0000000000
H          H       0.35348   0.62376   0.67335   0.0000000000
H          H       0.37728   0.67243   0.36300   0.0000000000
H          H       0.43608   0.63237   0.34891   0.0000000000
H          H       0.30925   0.67342   0.60478   0.0000000000
H          H       0.77776   0.77266   0.28772   0.0000000000
H          H       0.72237   0.72815   0.63148   0.0000000000
N          N       0.31436   0.69803   0.45477   0.0000000000
C          C       0.46412   0.95908   0.99397   0.0000000000
C          C       0.42896   0.02005   0.99036   0.0000000000
C          C       0.46438   0.08173   0.99511   0.0000000000
C          C       0.42814   0.10487   1.00206   0.0000000000
C          C       0.40462   0.10286   1.09347   0.0000000000
C          C       0.37115   0.12569   1.10190   0.0000000000
C          C       0.36077   0.15100   1.01931   0.0000000000
C          C       0.38445   0.15304   0.92778   0.0000000000
C          C       0.41799   0.13025   0.91955   0.0000000000
C          C       0.32569   0.17537   1.03128   0.0000000000
C          C       0.78153   0.27618   0.95887   0.0000000000
C          C       0.76575   0.26283   0.86279   0.0000000000
C          C       0.73432   0.23710   1.05572   0.0000000000
H          H       0.40100   0.03451   0.98634   0.0000000000
H          H       0.41238   0.08379   1.15851   0.0000000000
H          H       0.35348   0.12376   1.17335   0.0000000000
H          H       0.37728   0.17243   0.86300   0.0000000000
H          H       0.43608   0.13237   0.84891   0.0000000000
H          H       0.30925   0.17342   1.10478   0.0000000000
H          H       0.77776   0.27266   0.78772   0.0000000000
H          H       0.72237   0.22815   1.13148   0.0000000000
N          N       0.31436   0.19803   0.95477   0.0000000000
C          C       0.96412   0.45908   0.99397   0.0000000000
C          C       0.92896   0.52005   0.99036   0.0000000000
C          C       0.96438   0.58173   0.99511   0.0000000000
C          C       0.92814   0.60487   1.00206   0.0000000000
C          C       0.90462   0.60286   1.09347   0.0000000000
C          C       0.87115   0.62569   1.10190   0.0000000000
C          C       0.86077   0.65100   1.01931   0.0000000000
C          C       0.88445   0.65304   0.92778   0.0000000000
C          C       0.91799   0.63025   0.91955   0.0000000000
C          C       0.82569   0.67537   1.03128   0.0000000000
C          C       0.28153   0.77618   0.95887   0.0000000000
C          C       0.26575   0.76283   0.86279   0.0000000000
C          C       0.23432   0.73710   1.05572   0.0000000000
H          H       0.90100   0.53451   0.98634   0.0000000000
H          H       0.91238   0.58379   1.15851   0.0000000000
H          H       0.85348   0.62376   1.17335   0.0000000000
H          H       0.87728   0.67243   0.86300   0.0000000000
H          H       0.93608   0.63237   0.84891   0.0000000000
H          H       0.80925   0.67342   1.10478   0.0000000000
H          H       0.27776   0.77266   0.78772   0.0000000000
H          H       0.22237   0.72815   1.13148   0.0000000000
N          N       0.81436   0.69803   0.95477   0.0000000000
C          C       0.96412   0.95908   0.49397   0.0000000000
C          C       0.92896   0.02005   0.49036   0.0000000000
C          C       0.96438   0.08173   0.49511   0.0000000000
C          C       0.92814   0.10487   0.50206   0.0000000000
C          C       0.90462   0.10286   0.59347   0.0000000000
C          C       0.87115   0.12569   0.60190   0.0000000000
C          C       0.86077   0.15100   0.51931   0.0000000000
C          C       0.88445   0.15304   0.42778   0.0000000000
C          C       0.91799   0.13025   0.41955   0.0000000000
C          C       0.82569   0.17537   0.53128   0.0000000000
C          C       0.28153   0.27618   0.45887   0.0000000000
C          C       0.26575   0.26283   0.36279   0.0000000000
C          C       0.23432   0.23710   0.55572   0.0000000000
H          H       0.90100   0.03451   0.48634   0.0000000000
H          H       0.91238   0.08379   0.65851   0.0000000000
H          H       0.85348   0.12376   0.67335   0.0000000000
H          H       0.87728   0.17243   0.36300   0.0000000000
H          H       0.93608   0.13237   0.34891   0.0000000000
H          H       0.80925   0.17342   0.60478   0.0000000000
H          H       0.27776   0.27266   0.28772   0.0000000000
H          H       0.22237   0.22815   0.63148   0.0000000000
N          N       0.81436   0.19803   0.45477   0.0000000000
C          C       0.53588   0.54092   0.49397   0.0000000000
C          C       0.57104   0.47995   0.49036   0.0000000000
C          C       0.53562   0.41827   0.49511   0.0000000000
C          C       0.57186   0.39513   0.50206   0.0000000000
C          C       0.59538   0.39714   0.59347   0.0000000000
C          C       0.62885   0.37431   0.60190   0.0000000000
C          C       0.63923   0.34900   0.51931   0.0000000000
C          C       0.61555   0.34696   0.42778   0.0000000000
C          C       0.58201   0.36975   0.41955   0.0000000000
C          C       0.67431   0.32463   0.53128   0.0000000000
C          C       0.21847   0.22382   0.45887   0.0000000000
C          C       0.23425   0.23717   0.36279   0.0000000000
C          C       0.26568   0.26290   0.55572   0.0000000000
H          H       0.59900   0.46549   0.48634   0.0000000000
H          H       0.58762   0.41621   0.65851   0.0000000000
H          H       0.64652   0.37624   0.67335   0.0000000000
H          H       0.62272   0.32757   0.36300   0.0000000000
H          H       0.56392   0.36763   0.34891   0.0000000000
H          H       0.69075   0.32658   0.60478   0.0000000000
H          H       0.22224   0.22734   0.28772   0.0000000000
H          H       0.27763   0.27185   0.63148   0.0000000000
N          N       0.68564   0.30197   0.45477   0.0000000000
C          C       0.53588   0.04092   0.99397   0.0000000000
C          C       0.57104   0.97995   0.99036   0.0000000000
C          C       0.53562   0.91827   0.99511   0.0000000000
C          C       0.57186   0.89513   1.00206   0.0000000000
C          C       0.59538   0.89714   1.09347   0.0000000000
C          C       0.62885   0.87431   1.10190   0.0000000000
C          C       0.63923   0.84900   1.01931   0.0000000000
C          C       0.61555   0.84696   0.92778   0.0000000000
C          C       0.58201   0.86975   0.91955   0.0000000000
C          C       0.67431   0.82463   1.03128   0.0000000000
C          C       0.21847   0.72382   0.95887   0.0000000000
C          C       0.23425   0.73717   0.86279   0.0000000000
C          C       0.26568   0.76290   1.05572   0.0000000000
H          H       0.59900   0.96549   0.98634   0.0000000000
H          H       0.58762   0.91621   1.15851   0.0000000000
H          H       0.64652   0.87624   1.17335   0.0000000000
H          H       0.62272   0.82757   0.86300   0.0000000000
H          H       0.56392   0.86763   0.84891   0.0000000000
H          H       0.69075   0.82658   1.10478   0.0000000000
H          H       0.22224   0.72734   0.78772   0.0000000000
H          H       0.27763   0.77185   1.13148   0.0000000000
N          N       0.68564   0.80197   0.95477   0.0000000000
C          C       0.03588   0.54092   0.99397   0.0000000000
C          C       0.07104   0.47995   0.99036   0.0000000000
C          C       0.03562   0.41827   0.99511   0.0000000000
C          C       0.07186   0.39513   1.00206   0.0000000000
C          C       0.09538   0.39714   1.09347   0.0000000000
C          C       0.12885   0.37431   1.10190   0.0000000000
C          C       0.13923   0.34900   1.01931   0.0000000000
C          C       0.11555   0.34696   0.92778   0.0000000000
C          C       0.08201   0.36975   0.91955   0.0000000000
C          C       0.17431   0.32463   1.03128   0.0000000000
C          C       0.71847   0.22382   0.95887   0.0000000000
C          C       0.73425   0.23717   0.86279   0.0000000000
C          C       0.76568   0.26290   1.05572   0.0000000000
H          H       0.09900   0.46549   0.98634   0.0000000000
H          H       0.08762   0.41621   1.15851   0.0000000000
H          H       0.14652   0.37624   1.17335   0.0000000000
H          H       0.12272   0.32757   0.86300   0.0000000000
H          H       0.06392   0.36763   0.84891   0.0000000000
H          H       0.19075   0.32658   1.10478   0.0000000000
H          H       0.72224   0.22734   0.78772   0.0000000000
H          H       0.77763   0.27185   1.13148   0.0000000000
N          N       0.18564   0.30197   0.95477   0.0000000000
C          C       0.03588   0.04092   0.49397   0.0000000000
C          C       0.07104   0.97995   0.49036   0.0000000000
C          C       0.03562   0.91827   0.49511   0.0000000000
C          C       0.07186   0.89513   0.50206   0.0000000000
C          C       0.09538   0.89714   0.59347   0.0000000000
C          C       0.12885   0.87431   0.60190   0.0000000000
C          C       0.13923   0.84900   0.51931   0.0000000000
C          C       0.11555   0.84696   0.42778   0.0000000000
C          C       0.08201   0.86975   0.41955   0.0000000000
C          C       0.17431   0.82463   0.53128   0.0000000000
C          C       0.71847   0.72382   0.45887   0.0000000000
C          C       0.73425   0.73717   0.36279   0.0000000000
C          C       0.76568   0.76290   0.55572   0.0000000000
H          H       0.09900   0.96549   0.48634   0.0000000000
H          H       0.08762   0.91621   0.65851   0.0000000000
H          H       0.14652   0.87624   0.67335   0.0000000000
H          H       0.12272   0.82757   0.36300   0.0000000000
H          H       0.06392   0.86763   0.34891   0.0000000000
H          H       0.19075   0.82658   0.60478   0.0000000000
H          H       0.72224   0.72734   0.28772   0.0000000000
H          H       0.77763   0.77185   0.63148   0.0000000000
N          N       0.18564   0.80197   0.45477   0.0000000000
C          C       0.46412   0.54092   0.49397   0.0000000000
C          C       0.42896   0.47995   0.49036   0.0000000000
C          C       0.46438   0.41827   0.49511   0.0000000000
C          C       0.42814   0.39513   0.50206   0.0000000000
C          C       0.40462   0.39714   0.59347   0.0000000000
C          C       0.37115   0.37431   0.60190   0.0000000000
C          C       0.36077   0.34900   0.51931   0.0000000000
C          C       0.38445   0.34696   0.42778   0.0000000000
C          C       0.41799   0.36975   0.41955   0.0000000000
C          C       0.32569   0.32463   0.53128   0.0000000000
C          C       0.78153   0.22382   0.45887   0.0000000000
C          C       0.76575   0.23717   0.36279   0.0000000000
C          C       0.73432   0.26290   0.55572   0.0000000000
H          H       0.40100   0.46549   0.48634   0.0000000000
H          H       0.41238   0.41621   0.65851   0.0000000000
H          H       0.35348   0.37624   0.67335   0.0000000000
H          H       0.37728   0.32757   0.36300   0.0000000000
H          H       0.43608   0.36763   0.34891   0.0000000000
H          H       0.30925   0.32658   0.60478   0.0000000000
H          H       0.77776   0.22734   0.28772   0.0000000000
H          H       0.72237   0.27185   0.63148   0.0000000000
N          N       0.31436   0.30197   0.45477   0.0000000000
C          C       0.46412   0.04092   0.99397   0.0000000000
C          C       0.42896   0.97995   0.99036   0.0000000000
C          C       0.46438   0.91827   0.99511   0.0000000000
C          C       0.42814   0.89513   1.00206   0.0000000000
C          C       0.40462   0.89714   1.09347   0.0000000000
C          C       0.37115   0.87431   1.10190   0.0000000000
C          C       0.36077   0.84900   1.01931   0.0000000000
C          C       0.38445   0.84696   0.92778   0.0000000000
C          C       0.41799   0.86975   0.91955   0.0000000000
C          C       0.32569   0.82463   1.03128   0.0000000000
C          C       0.78153   0.72382   0.95887   0.0000000000
C          C       0.76575   0.73717   0.86279   0.0000000000
C          C       0.73432   0.76290   1.05572   0.0000000000
H          H       0.40100   0.96549   0.98634   0.0000000000
H          H       0.41238   0.91621   1.15851   0.0000000000
H          H       0.35348   0.87624   1.17335   0.0000000000
H          H       0.37728   0.82757   0.86300   0.0000000000
H          H       0.43608   0.86763   0.84891   0.0000000000
H          H       0.30925   0.82658   1.10478   0.0000000000
H          H       0.77776   0.72734   0.78772   0.0000000000
H          H       0.72237   0.77185   1.13148   0.0000000000
N          N       0.31436   0.80197   0.95477   0.0000000000
C          C       0.96412   0.54092   0.99397   0.0000000000
C          C       0.92896   0.47995   0.99036   0.0000000000
C          C       0.96438   0.41827   0.99511   0.0000000000
C          C       0.92814   0.39513   1.00206   0.0000000000
C          C       0.90462   0.39714   1.09347   0.0000000000
C          C       0.87115   0.37431   1.10190   0.0000000000
C          C       0.86077   0.34900   1.01931   0.0000000000
C          C       0.88445   0.34696   0.92778   0.0000000000
C          C       0.91799   0.36975   0.91955   0.0000000000
C          C       0.82569   0.32463   1.03128   0.0000000000
C          C       0.28153   0.22382   0.95887   0.0000000000
C          C       0.26575   0.23717   0.86279   0.0000000000
C          C       0.23432   0.26290   1.05572   0.0000000000
H          H       0.90100   0.46549   0.98634   0.0000000000
H          H       0.91238   0.41621   1.15851   0.0000000000
H          H       0.85348   0.37624   1.17335   0.0000000000
H          H       0.87728   0.32757   0.86300   0.0000000000
H          H       0.93608   0.36763   0.84891   0.0000000000
H          H       0.80925   0.32658   1.10478   0.0000000000
H          H       0.27776   0.22734   0.78772   0.0000000000
H          H       0.22237   0.27185   1.13148   0.0000000000
N          N       0.81436   0.30197   0.95477   0.0000000000
C          C       0.96412   0.04092   0.49397   0.0000000000
C          C       0.92896   0.97995   0.49036   0.0000000000
C          C       0.96438   0.91827   0.49511   0.0000000000
C          C       0.92814   0.89513   0.50206   0.0000000000
C          C       0.90462   0.89714   0.59347   0.0000000000
C          C       0.87115   0.87431   0.60190   0.0000000000
C          C       0.86077   0.84900   0.51931   0.0000000000
C          C       0.88445   0.84696   0.42778   0.0000000000
C          C       0.91799   0.86975   0.41955   0.0000000000
C          C       0.82569   0.82463   0.53128   0.0000000000
C          C       0.28153   0.72382   0.45887   0.0000000000
C          C       0.26575   0.73717   0.36279   0.0000000000
C          C       0.23432   0.76290   0.55572   0.0000000000
H          H       0.90100   0.96549   0.48634   0.0000000000
H          H       0.91238   0.91621   0.65851   0.0000000000
H          H       0.85348   0.87624   0.67335   0.0000000000
H          H       0.87728   0.82757   0.36300   0.0000000000
H          H       0.93608   0.86763   0.34891   0.0000000000
H          H       0.80925   0.82658   0.60478   0.0000000000
H          H       0.27776   0.72734   0.28772   0.0000000000
H          H       0.22237   0.77185   0.63148   0.0000000000
N          N       0.81436   0.80197   0.45477   0.0000000000
C          C       0.53588   0.45908   0.49397   0.0000000000
C          C       0.57104   0.52005   0.49036   0.0000000000
C          C       0.53562   0.58173   0.49511   0.0000000000
C          C       0.57186   0.60487   0.50206   0.0000000000
C          C       0.59538   0.60286   0.59347   0.0000000000
C          C       0.62885   0.62569   0.60190   0.0000000000
C          C       0.63923   0.65100   0.51931   0.0000000000
C          C       0.61555   0.65304   0.42778   0.0000000000
C          C       0.58201   0.63025   0.41955   0.0000000000
C          C       0.67431   0.67537   0.53128   0.0000000000
C          C       0.21847   0.77618   0.45887   0.0000000000
C          C       0.23425   0.76283   0.36279   0.0000000000
C          C       0.26568   0.73710   0.55572   0.0000000000
H          H       0.59900   0.53451   0.48634   0.0000000000
H          H       0.58762   0.58379   0.65851   0.0000000000
H          H       0.64652   0.62376   0.67335   0.0000000000
H          H       0.62272   0.67243   0.36300   0.0000000000
H          H       0.56392   0.63237   0.34891   0.0000000000
H          H       0.69075   0.67342   0.60478   0.0000000000
H          H       0.22224   0.77266   0.28772   0.0000000000
H          H       0.27763   0.72815   0.63148   0.0000000000
N          N       0.68564   0.69803   0.45477   0.0000000000
C          C       0.53588   0.95908   0.99397   0.0000000000
C          C       0.57104   0.02005   0.99036   0.0000000000
C          C       0.53562   0.08173   0.99511   0.0000000000
C          C       0.57186   0.10487   1.00206   0.0000000000
C          C       0.59538   0.10286   1.09347   0.0000000000
C          C       0.62885   0.12569   1.10190   0.0000000000
C          C       0.63923   0.15100   1.01931   0.0000000000
C          C       0.61555   0.15304   0.92778   0.0000000000
C          C       0.58201   0.13025   0.91955   0.0000000000
C          C       0.67431   0.17537   1.03128   0.0000000000
C          C       0.21847   0.27618   0.95887   0.0000000000
C          C       0.23425   0.26283   0.86279   0.0000000000
C          C       0.26568   0.23710   1.05572   0.0000000000
H          H       0.59900   0.03451   0.98634   0.0000000000
H          H       0.58762   0.08379   1.15851   0.0000000000
H          H       0.64652   0.12376   1.17335   0.0000000000
H          H       0.62272   0.17243   0.86300   0.0000000000
H          H       0.56392   0.13237   0.84891   0.0000000000
H          H       0.69075   0.17342   1.10478   0.0000000000
H          H       0.22224   0.27266   0.78772   0.0000000000
H          H       0.27763   0.22815   1.13148   0.0000000000
N          N       0.68564   0.19803   0.95477   0.0000000000
C          C       0.03588   0.45908   0.99397   0.0000000000
C          C       0.07104   0.52005   0.99036   0.0000000000
C          C       0.03562   0.58173   0.99511   0.0000000000
C          C       0.07186   0.60487   1.00206   0.0000000000
C          C       0.09538   0.60286   1.09347   0.0000000000
C          C       0.12885   0.62569   1.10190   0.0000000000
C          C       0.13923   0.65100   1.01931   0.0000000000
C          C       0.11555   0.65304   0.92778   0.0000000000
C          C       0.08201   0.63025   0.91955   0.0000000000
C          C       0.17431   0.67537   1.03128   0.0000000000
C          C       0.71847   0.77618   0.95887   0.0000000000
C          C       0.73425   0.76283   0.86279   0.0000000000
C          C       0.76568   0.73710   1.05572   0.0000000000
H          H       0.09900   0.53451   0.98634   0.0000000000
H          H       0.08762   0.58379   1.15851   0.0000000000
H          H       0.14652   0.62376   1.17335   0.0000000000
H          H       0.12272   0.67243   0.86300   0.0000000000
H          H       0.06392   0.63237   0.84891   0.0000000000
H          H       0.19075   0.67342   1.10478   0.0000000000
H          H       0.72224   0.77266   0.78772   0.0000000000
H          H       0.77763   0.72815   1.13148   0.0000000000
N          N       0.18564   0.69803   0.95477   0.0000000000
C          C       0.03588   0.95908   0.49397   0.0000000000
C          C       0.07104   0.02005   0.49036   0.0000000000
C          C       0.03562   0.08173   0.49511   0.0000000000
C          C       0.07186   0.10487   0.50206   0.0000000000
C          C       0.09538   0.10286   0.59347   0.0000000000
C          C       0.12885   0.12569   0.60190   0.0000000000
C          C       0.13923   0.15100   0.51931   0.0000000000
C          C       0.11555   0.15304   0.42778   0.0000000000
C          C       0.08201   0.13025   0.41955   0.0000000000
C          C       0.17431   0.17537   0.53128   0.0000000000
C          C       0.71847   0.27618   0.45887   0.0000000000
C          C       0.73425   0.26283   0.36279   0.0000000000
C          C       0.76568   0.23710   0.55572   0.0000000000
H          H       0.09900   0.03451   0.48634   0.0000000000
H          H       0.08762   0.08379   0.65851   0.0000000000
H          H       0.14652   0.12376   0.67335   0.0000000000
H          H       0.12272   0.17243   0.36300   0.0000000000
H          H       0.06392   0.13237   0.34891   0.0000000000
H          H       0.19075   0.17342   0.60478   0.0000000000
H          H       0.72224   0.27266   0.28772   0.0000000000
H          H       0.77763   0.22815   0.63148   0.0000000000
N          N       0.18564   0.19803   0.45477   0.0000000000
C          C       0.50000   0.47951   0.49409   0.0000000000
C          C       0.50000   0.60145   0.49433   0.0000000000
H          H       0.50000   0.63271   0.49682   0.0000000000
C          C       0.50000   0.97951   0.99409   0.0000000000
C          C       0.50000   0.10145   0.99433   0.0000000000
H          H       0.50000   0.13271   0.99682   0.0000000000
C          C       0.00000   0.47951   0.99409   0.0000000000
C          C       0.00000   0.60145   0.99433   0.0000000000
H          H       0.00000   0.63271   0.99682   0.0000000000
C          C       0.00000   0.97951   0.49409   0.0000000000
C          C       0.00000   0.10145   0.49433   0.0000000000
H          H       0.00000   0.13271   0.49682   0.0000000000
C          C       0.50000   0.52049   0.49409   0.0000000000
C          C       0.50000   0.39855   0.49433   0.0000000000
H          H       0.50000   0.36729   0.49682   0.0000000000
C          C       0.50000   0.02049   0.99409   0.0000000000
C          C       0.50000   0.89855   0.99433   0.0000000000
H          H       0.50000   0.86729   0.99682   0.0000000000
C          C       0.00000   0.52049   0.99409   0.0000000000
C          C       0.00000   0.39855   0.99433   0.0000000000
H          H       0.00000   0.36729   0.99682   0.0000000000
C          C       0.00000   0.02049   0.49409   0.0000000000
C          C       0.00000   0.89855   0.49433   0.0000000000
H          H       0.00000   0.86729   0.49682   0.0000000000
