data_crystal
 
_cell_length_a    38.15060
_cell_length_b    38.15060
_cell_length_c    3.43570
_cell_angle_alpha 90.00000
_cell_angle_beta  90.00000
_cell_angle_gamma 120.00000
 
_symmetry_space_group_name_Hall 'P 1'
_symmetry_space_group_name_H-M  'P 1'
 
loop_
_symmetry_equiv_pos_as_xyz
 'x,y,z' 
 
loop_
_atom_site_label
_atom_site_type_symbol
_atom_site_fract_x
_atom_site_fract_y
_atom_site_fract_z
_atom_site_charge
C          C       0.31014   0.14342   0.00000   0.0000000000
C          C       0.35239   0.16202   0.00000   0.0000000000
C          C       0.37783   0.20440   0.00000   0.0000000000
C          C       0.35706   0.22640   0.00000   0.0000000000
C          C       0.31498   0.20831   0.00000   0.0000000000
C          C       0.28892   0.16521   0.00000   0.0000000000
C          C       0.24237   0.14141   0.00000   0.0000000000
C          C       0.42386   0.22340   0.00000   0.0000000000
C          C       0.44223   0.19895   0.00000   0.0000000000
C          C       0.48420   0.21578   0.00000   0.0000000000
C          C       0.50984   0.25752   0.00000   0.0000000000
C          C       0.49268   0.28252   0.00000   0.0000000000
C          C       0.45068   0.26583   0.00000   0.0000000000
C          C       0.21819   0.15986   0.00000   0.0000000000
C          C       0.17595   0.13745   0.00000   0.0000000000
C          C       0.15552   0.09541   0.00000   0.0000000000
C          C       0.17827   0.07587   0.00000   0.0000000000
C          C       0.22053   0.09826   0.00000   0.0000000000
N          N       0.11200   0.07427   0.00000   0.0000000000
N          N       0.55277   0.27277   0.00000   0.0000000000
C          C       0.08771   0.03534   0.00000   0.0000000000
C          C       0.04347   0.01824   0.00000   0.0000000000
C          C       0.58140   0.31043   0.00000   0.0000000000
C          C       0.62428   0.32121   0.00000   0.0000000000
N          N       0.37466   0.26916   0.00000   0.0000000000
C          C       0.34504   0.27629   0.00000   0.0000000000
N          N       0.30636   0.24077   0.00000   0.0000000000
C          C       0.02615   0.04305   0.00000   0.0000000000
C          C       0.63565   0.29156   0.00000   0.0000000000
H          H       0.29533   0.11105   0.00000   0.0000000000
H          H       0.36393   0.14149   0.00000   0.0000000000
H          H       0.42530   0.16647   0.00000   0.0000000000
H          H       0.49690   0.19596   0.00000   0.0000000000
H          H       0.51115   0.31507   0.00000   0.0000000000
H          H       0.44088   0.28759   0.00000   0.0000000000
H          H       0.22994   0.19129   0.00000   0.0000000000
H          H       0.15889   0.15317   0.00000   0.0000000000
H          H       0.16405   0.04330   0.00000   0.0000000000
H          H       0.23462   0.08001   0.00000   0.0000000000
H          H       0.09914   0.01456   0.00000   0.0000000000
H          H       0.57466   0.33474   0.00000   0.0000000000
H          H       0.34946   0.30658   0.00000   0.0000000000
H          H       0.28041   0.24287   0.00000   0.0000000000
H          H       0.04520   0.07566   0.00000   0.0000000000
H          H       0.61284   0.25978   0.00000   0.0000000000
C          C       0.85658   0.16672   0.00000   0.0000000000
C          C       0.83798   0.19037   0.00000   0.0000000000
C          C       0.79560   0.17343   0.00000   0.0000000000
C          C       0.77360   0.13066   0.00000   0.0000000000
C          C       0.79169   0.10667   0.00000   0.0000000000
C          C       0.83479   0.12371   0.00000   0.0000000000
C          C       0.85859   0.10096   0.00000   0.0000000000
C          C       0.77660   0.20046   0.00000   0.0000000000
C          C       0.80105   0.24328   0.00000   0.0000000000
C          C       0.78422   0.26842   0.00000   0.0000000000
C          C       0.74248   0.25232   0.00000   0.0000000000
C          C       0.71748   0.21016   0.00000   0.0000000000
C          C       0.73417   0.18485   0.00000   0.0000000000
C          C       0.84014   0.05833   0.00000   0.0000000000
C          C       0.86255   0.03850   0.00000   0.0000000000
C          C       0.90459   0.06011   0.00000   0.0000000000
C          C       0.92413   0.10240   0.00000   0.0000000000
C          C       0.90174   0.12227   0.00000   0.0000000000
N          N       0.92573   0.03773   0.00000   0.0000000000
N          N       0.72723   0.28000   0.00000   0.0000000000
C          C       0.96466   0.05237   0.00000   0.0000000000
C          C       0.98176   0.02523   0.00000   0.0000000000
C          C       0.68957   0.27097   0.00000   0.0000000000
C          C       0.67879   0.30307   0.00000   0.0000000000
N          N       0.73084   0.10550   0.00000   0.0000000000
C          C       0.72371   0.06875   0.00000   0.0000000000
N          N       0.75923   0.06559   0.00000   0.0000000000
C          C       0.95695   0.98310   0.00000   0.0000000000
C          C       0.70844   0.34409   0.00000   0.0000000000
H          H       0.88895   0.18428   0.00000   0.0000000000
H          H       0.85851   0.22244   0.00000   0.0000000000
H          H       0.83353   0.25883   0.00000   0.0000000000
H          H       0.80404   0.30094   0.00000   0.0000000000
H          H       0.68493   0.19608   0.00000   0.0000000000
H          H       0.71241   0.15329   0.00000   0.0000000000
H          H       0.80871   0.03865   0.00000   0.0000000000
H          H       0.84683   0.00572   0.00000   0.0000000000
H          H       0.95670   0.12075   0.00000   0.0000000000
H          H       0.91999   0.15461   0.00000   0.0000000000
H          H       0.98544   0.08458   0.00000   0.0000000000
H          H       0.66526   0.23992   0.00000   0.0000000000
H          H       0.69342   0.04288   0.00000   0.0000000000
H          H       0.75713   0.03754   0.00000   0.0000000000
H          H       0.92434   0.96954   0.00000   0.0000000000
H          H       0.74022   0.35306   0.00000   0.0000000000
C          C       0.83328   0.68986   0.00000   0.0000000000
C          C       0.80963   0.64761   0.00000   0.0000000000
C          C       0.82657   0.62217   0.00000   0.0000000000
C          C       0.86934   0.64294   0.00000   0.0000000000
C          C       0.89333   0.68502   0.00000   0.0000000000
C          C       0.87629   0.71108   0.00000   0.0000000000
C          C       0.89904   0.75763   0.00000   0.0000000000
C          C       0.79954   0.57614   0.00000   0.0000000000
C          C       0.75672   0.55777   0.00000   0.0000000000
C          C       0.73158   0.51580   0.00000   0.0000000000
C          C       0.74768   0.49016   0.00000   0.0000000000
C          C       0.78984   0.50732   0.00000   0.0000000000
C          C       0.81515   0.54932   0.00000   0.0000000000
C          C       0.94167   0.78181   0.00000   0.0000000000
C          C       0.96150   0.82405   0.00000   0.0000000000
C          C       0.93989   0.84448   0.00000   0.0000000000
C          C       0.89760   0.82173   0.00000   0.0000000000
C          C       0.87773   0.77947   0.00000   0.0000000000
N          N       0.96227   0.88800   0.00000   0.0000000000
N          N       0.72000   0.44723   0.00000   0.0000000000
C          C       0.94763   0.91229   0.00000   0.0000000000
C          C       0.97477   0.95653   0.00000   0.0000000000
C          C       0.72903   0.41860   0.00000   0.0000000000
C          C       0.69693   0.37572   0.00000   0.0000000000
N          N       0.89450   0.62534   0.00000   0.0000000000
C          C       0.93125   0.65496   0.00000   0.0000000000
N          N       0.93441   0.69364   0.00000   0.0000000000
C          C       0.01690   0.97385   0.00000   0.0000000000
C          C       0.65591   0.36435   0.00000   0.0000000000
H          H       0.81572   0.70467   0.00000   0.0000000000
H          H       0.77756   0.63607   0.00000   0.0000000000
H          H       0.74117   0.57470   0.00000   0.0000000000
H          H       0.69906   0.50310   0.00000   0.0000000000
H          H       0.80392   0.48885   0.00000   0.0000000000
H          H       0.84671   0.55912   0.00000   0.0000000000
H          H       0.96135   0.77006   0.00000   0.0000000000
H          H       0.99428   0.84111   0.00000   0.0000000000
H          H       0.87925   0.83595   0.00000   0.0000000000
H          H       0.84539   0.76538   0.00000   0.0000000000
H          H       0.91542   0.90086   0.00000   0.0000000000
H          H       0.76008   0.42534   0.00000   0.0000000000
H          H       0.95712   0.65054   0.00000   0.0000000000
H          H       0.96246   0.71959   0.00000   0.0000000000
H          H       0.03046   0.95480   0.00000   0.0000000000
H          H       0.64694   0.38716   0.00000   0.0000000000
