data_LZU-70
_audit_creation_date              0000-00-00
_audit_creation_method            'LanYouShi'
_symmetry_space_group_name_H-M    'P1'
_cell_length_a                    38.1506004
_cell_length_b                    38.1506004
_cell_length_c                    3.4356999
_cell_angle_alpha                 90.0000000
_cell_angle_beta                  90.0000000
_cell_angle_gamma                 120.0000000
loop_
_atom_site_label
_atom_site_type_symbol
_atom_site_fract_x
_atom_site_fract_y
_atom_site_fract_z
_atom_site_U_iso_or_equiv
_atom_site_adp_type
_atom_site_occupancy
        C1          C  0.3101400  0.1434200  0.0000000    0.00000       Uiso       1.00
        C2          C  0.3523900  0.1620200  0.0000000    0.00000       Uiso       1.00
        C3          C  0.3778300  0.2044000  0.0000000    0.00000       Uiso       1.00
        C4          C  0.3570600  0.2264000  0.0000000    0.00000       Uiso       1.00
        C5          C  0.3149800  0.2083100  0.0000000    0.00000       Uiso       1.00
        C6          C  0.2889200  0.1652100  0.0000000    0.00000       Uiso       1.00
        C7          C  0.2423700  0.1414100  0.0000000    0.00000       Uiso       1.00
        C8          C  0.4238600  0.2234000  0.0000000    0.00000       Uiso       1.00
        C9          C  0.4422300  0.1989500  0.0000000    0.00000       Uiso       1.00
       C10          C  0.4842000  0.2157800  0.0000000    0.00000       Uiso       1.00
       C11          C  0.5098400  0.2575200  0.0000000    0.00000       Uiso       1.00
       C12          C  0.4926800  0.2825200  0.0000000    0.00000       Uiso       1.00
       C13          C  0.4506800  0.2658300  0.0000000    0.00000       Uiso       1.00
       C14          C  0.2181900  0.1598600  0.0000000    0.00000       Uiso       1.00
       C15          C  0.1759500  0.1374500  0.0000000    0.00000       Uiso       1.00
       C16          C  0.1555200  0.0954100  0.0000000    0.00000       Uiso       1.00
       C17          C  0.1782700  0.0758700  0.0000000    0.00000       Uiso       1.00
       C18          C  0.2205300  0.0982600  0.0000000    0.00000       Uiso       1.00
        N1          N  0.1120000  0.0742700  0.0000000    0.00000       Uiso       1.00
        N2          N  0.5527700  0.2727700  0.0000000    0.00000       Uiso       1.00
       C19          C  0.0877100  0.0353400  0.0000000    0.00000       Uiso       1.00
       C20          C  0.0434700  0.0182400  0.0000000    0.00000       Uiso       1.00
       C21          C  0.5814000  0.3104300  0.0000000    0.00000       Uiso       1.00
       C22          C  0.6242800  0.3212100  0.0000000    0.00000       Uiso       1.00
        N3          N  0.3746600  0.2691600  0.0000000    0.00000       Uiso       1.00
       C23          C  0.3450400  0.2762900  0.0000000    0.00000       Uiso       1.00
        N4          N  0.3063600  0.2407700  0.0000000    0.00000       Uiso       1.00
       C24          C  0.0261500  0.0430500  0.0000000    0.00000       Uiso       1.00
       C25          C  0.6356500  0.2915600  0.0000000    0.00000       Uiso       1.00
        H1          H  0.2953300  0.1110500  0.0000000    0.00000       Uiso       1.00
        H2          H  0.3639300  0.1414900  0.0000000    0.00000       Uiso       1.00
        H3          H  0.4253000  0.1664700  0.0000000    0.00000       Uiso       1.00
        H4          H  0.4969000  0.1959600  0.0000000    0.00000       Uiso       1.00
        H5          H  0.5111500  0.3150700  0.0000000    0.00000       Uiso       1.00
        H6          H  0.4408800  0.2875900  0.0000000    0.00000       Uiso       1.00
        H7          H  0.2299400  0.1912900  0.0000000    0.00000       Uiso       1.00
        H8          H  0.1588900  0.1531700  0.0000000    0.00000       Uiso       1.00
        H9          H  0.1640500  0.0433000  0.0000000    0.00000       Uiso       1.00
       H10          H  0.2346200  0.0800100  0.0000000    0.00000       Uiso       1.00
       H11          H  0.0991400  0.0145600  0.0000000    0.00000       Uiso       1.00
       H12          H  0.5746600  0.3347400  0.0000000    0.00000       Uiso       1.00
       H13          H  0.3494600  0.3065800  0.0000000    0.00000       Uiso       1.00
       H14          H  0.2804100  0.2428700  0.0000000    0.00000       Uiso       1.00
       H15          H  0.0452000  0.0756600  0.0000000    0.00000       Uiso       1.00
       H16          H  0.6128400  0.2597800  0.0000000    0.00000       Uiso       1.00
       C26          C  0.8565800  0.1667200  0.0000000    0.00000       Uiso       1.00
       C27          C  0.8379800  0.1903700  0.0000000    0.00000       Uiso       1.00
       C28          C  0.7956000  0.1734300  0.0000000    0.00000       Uiso       1.00
       C29          C  0.7736000  0.1306600  0.0000000    0.00000       Uiso       1.00
       C30          C  0.7916900  0.1066700  0.0000000    0.00000       Uiso       1.00
       C31          C  0.8347900  0.1237100  0.0000000    0.00000       Uiso       1.00
       C32          C  0.8585900  0.1009600  0.0000000    0.00000       Uiso       1.00
       C33          C  0.7766000  0.2004600  0.0000000    0.00000       Uiso       1.00
       C34          C  0.8010500  0.2432800  0.0000000    0.00000       Uiso       1.00
       C35          C  0.7842200  0.2684200  0.0000000    0.00000       Uiso       1.00
       C36          C  0.7424800  0.2523200  0.0000000    0.00000       Uiso       1.00
       C37          C  0.7174800  0.2101600  0.0000000    0.00000       Uiso       1.00
       C38          C  0.7341700  0.1848500  0.0000000    0.00000       Uiso       1.00
       C39          C  0.8401400  0.0583300  0.0000000    0.00000       Uiso       1.00
       C40          C  0.8625500  0.0385000  0.0000000    0.00000       Uiso       1.00
       C41          C  0.9045900  0.0601100  0.0000000    0.00000       Uiso       1.00
       C42          C  0.9241300  0.1024000  0.0000000    0.00000       Uiso       1.00
       C43          C  0.9017400  0.1222700  0.0000000    0.00000       Uiso       1.00
        N5          N  0.9257299  0.0377300  0.0000000    0.00000       Uiso       1.00
        N6          N  0.7272300  0.2800000  0.0000000    0.00000       Uiso       1.00
       C44          C  0.9646599  0.0523700  0.0000000    0.00000       Uiso       1.00
       C45          C  0.9817600  0.0252300  0.0000000    0.00000       Uiso       1.00
       C46          C  0.6895700  0.2709700  0.0000000    0.00000       Uiso       1.00
       C47          C  0.6787900  0.3030700  0.0000000    0.00000       Uiso       1.00
        N7          N  0.7308400  0.1055000  0.0000000    0.00000       Uiso       1.00
       C48          C  0.7237100  0.0687500  0.0000000    0.00000       Uiso       1.00
        N8          N  0.7592300  0.0655900  0.0000000    0.00000       Uiso       1.00
       C49          C  0.9569499  0.9830999  0.0000000    0.00000       Uiso       1.00
       C50          C  0.7084400  0.3440900  0.0000000    0.00000       Uiso       1.00
       H17          H  0.8889500  0.1842800  0.0000000    0.00000       Uiso       1.00
       H18          H  0.8585100  0.2224400  0.0000000    0.00000       Uiso       1.00
       H19          H  0.8335300  0.2588300  0.0000000    0.00000       Uiso       1.00
       H20          H  0.8040400  0.3009400  0.0000000    0.00000       Uiso       1.00
       H21          H  0.6849300  0.1960800  0.0000000    0.00000       Uiso       1.00
       H22          H  0.7124100  0.1532900  0.0000000    0.00000       Uiso       1.00
       H23          H  0.8087100  0.0386500  0.0000000    0.00000       Uiso       1.00
       H24          H  0.8468300  0.0057200  0.0000000    0.00000       Uiso       1.00
       H25          H  0.9567000  0.1207500  0.0000000    0.00000       Uiso       1.00
       H26          H  0.9199899  0.1546100  0.0000000    0.00000       Uiso       1.00
       H27          H  0.9854400  0.0845800  0.0000000    0.00000       Uiso       1.00
       H28          H  0.6652600  0.2399200  0.0000000    0.00000       Uiso       1.00
       H29          H  0.6934200  0.0428800  0.0000000    0.00000       Uiso       1.00
       H30          H  0.7571300  0.0375400  0.0000000    0.00000       Uiso       1.00
       H31          H  0.9243400  0.9695400  0.0000000    0.00000       Uiso       1.00
       H32          H  0.7402200  0.3530600  0.0000000    0.00000       Uiso       1.00
       C51          C  0.8332800  0.6898600  0.0000000    0.00000       Uiso       1.00
       C52          C  0.8096300  0.6476100  0.0000000    0.00000       Uiso       1.00
       C53          C  0.8265700  0.6221700  0.0000000    0.00000       Uiso       1.00
       C54          C  0.8693400  0.6429400  0.0000000    0.00000       Uiso       1.00
       C55          C  0.8933300  0.6850200  0.0000000    0.00000       Uiso       1.00
       C56          C  0.8762900  0.7110800  0.0000000    0.00000       Uiso       1.00
       C57          C  0.8990400  0.7576300  0.0000000    0.00000       Uiso       1.00
       C58          C  0.7995400  0.5761400  0.0000000    0.00000       Uiso       1.00
       C59          C  0.7567200  0.5577700  0.0000000    0.00000       Uiso       1.00
       C60          C  0.7315800  0.5158000  0.0000000    0.00000       Uiso       1.00
       C61          C  0.7476800  0.4901600  0.0000000    0.00000       Uiso       1.00
       C62          C  0.7898400  0.5073200  0.0000000    0.00000       Uiso       1.00
       C63          C  0.8151500  0.5493200  0.0000000    0.00000       Uiso       1.00
       C64          C  0.9416699  0.7818100  0.0000000    0.00000       Uiso       1.00
       C65          C  0.9615000  0.8240500  0.0000000    0.00000       Uiso       1.00
       C66          C  0.9398900  0.8444800  0.0000000    0.00000       Uiso       1.00
       C67          C  0.8976000  0.8217300  0.0000000    0.00000       Uiso       1.00
       C68          C  0.8777300  0.7794700  0.0000000    0.00000       Uiso       1.00
        N9          N  0.9622700  0.8880000  0.0000000    0.00000       Uiso       1.00
       N10          N  0.7200000  0.4472300  0.0000000    0.00000       Uiso       1.00
       C69          C  0.9476300  0.9122900  0.0000000    0.00000       Uiso       1.00
       C70          C  0.9747699  0.9565300  0.0000000    0.00000       Uiso       1.00
       C71          C  0.7290300  0.4186000  0.0000000    0.00000       Uiso       1.00
       C72          C  0.6969300  0.3757200  0.0000000    0.00000       Uiso       1.00
       N11          N  0.8945000  0.6253400  0.0000000    0.00000       Uiso       1.00
       C73          C  0.9312500  0.6549600  0.0000000    0.00000       Uiso       1.00
       N12          N  0.9344100  0.6936400  0.0000000    0.00000       Uiso       1.00
       C74          C  0.0169000  0.9738500  0.0000000    0.00000       Uiso       1.00
       C75          C  0.6559100  0.3643500  0.0000000    0.00000       Uiso       1.00
       H33          H  0.8157200  0.7046700  0.0000000    0.00000       Uiso       1.00
       H34          H  0.7775600  0.6360700  0.0000000    0.00000       Uiso       1.00
       H35          H  0.7411700  0.5747000  0.0000000    0.00000       Uiso       1.00
       H36          H  0.6990600  0.5031000  0.0000000    0.00000       Uiso       1.00
       H37          H  0.8039200  0.4888500  0.0000000    0.00000       Uiso       1.00
       H38          H  0.8467100  0.5591200  0.0000000    0.00000       Uiso       1.00
       H39          H  0.9613500  0.7700600  0.0000000    0.00000       Uiso       1.00
       H40          H  0.9942800  0.8411100  0.0000000    0.00000       Uiso       1.00
       H41          H  0.8792500  0.8359500  0.0000000    0.00000       Uiso       1.00
       H42          H  0.8453900  0.7653800  0.0000000    0.00000       Uiso       1.00
       H43          H  0.9154200  0.9008600  0.0000000    0.00000       Uiso       1.00
       H44          H  0.7600800  0.4253400  0.0000000    0.00000       Uiso       1.00
       H45          H  0.9571200  0.6505400  0.0000000    0.00000       Uiso       1.00
       H46          H  0.9624600  0.7195900  0.0000000    0.00000       Uiso       1.00
       H47          H  0.0304600  0.9548000  0.0000000    0.00000       Uiso       1.00
       H48          H  0.6469400  0.3871600  0.0000000    0.00000       Uiso       1.00
