data_crystal
 
_cell_length_a    16.08240
_cell_length_b    16.08240
_cell_length_c    3.40000
_cell_angle_alpha 90.00000
_cell_angle_beta  90.00000
_cell_angle_gamma 120.00000
 
_symmetry_space_group_name_Hall 'P 1'
_symmetry_space_group_name_H-M  'P 1'
 
loop_
_symmetry_equiv_pos_as_xyz
 'x,y,z' 
 
loop_
_atom_site_label
_atom_site_type_symbol
_atom_site_fract_x
_atom_site_fract_y
_atom_site_fract_z
_atom_site_charge
N          N       0.54506   0.53598   1.47059   0.0000000000
N          N       0.45494   0.46402   1.47059   0.0000000000
C          C       0.62459   0.52635   1.47059   0.0000000000
C          C       0.37541   0.47365   1.47059   0.0000000000
H          H       0.62131   0.46105   1.47059   0.0000000000
H          H       0.37869   0.53895   1.47059   0.0000000000
N          N       0.96402   0.50908   1.47059   0.0000000000
N          N       0.03598   0.49092   1.47059   0.0000000000
C          C       0.97365   0.59824   1.47059   0.0000000000
C          C       0.02635   0.40176   1.47059   0.0000000000
H          H       0.03895   0.66026   1.47059   0.0000000000
H          H       0.96105   0.33974   1.47059   0.0000000000
N          N       0.99092   0.95494   1.47059   0.0000000000
N          N       0.00908   0.04506   1.47059   0.0000000000
C          C       0.90176   0.87541   1.47059   0.0000000000
C          C       0.09824   0.12459   1.47059   0.0000000000
H          H       0.83974   0.87869   1.47059   0.0000000000
H          H       0.16026   0.12131   1.47059   0.0000000000
C          C       0.73451   0.60024   1.47059   0.0000000000
C          C       0.86573   0.76549   1.47059   0.0000000000
C          C       0.89976   0.63427   1.47059   0.0000000000
C          C       0.76707   0.69898   1.47059   0.0000000000
C          C       0.93191   0.73293   1.47059   0.0000000000
C          C       0.80102   0.56809   1.47059   0.0000000000
H          H       0.77599   0.49172   1.47059   0.0000000000
H          H       0.71574   0.72401   1.47059   0.0000000000
H          H       0.00828   0.78426   1.47059   0.0000000000
C          C       0.26549   0.39976   1.47059   0.0000000000
C          C       0.13427   0.23451   1.47059   0.0000000000
C          C       0.10024   0.36573   1.47059   0.0000000000
C          C       0.23293   0.30102   1.47059   0.0000000000
C          C       0.06809   0.26707   1.47059   0.0000000000
C          C       0.19898   0.43191   1.47059   0.0000000000
H          H       0.22401   0.50828   1.47059   0.0000000000
H          H       0.28426   0.27599   1.47059   0.0000000000
H          H       0.99172   0.21574   1.47059   0.0000000000
