data_LZU-76
_audit_creation_date              0000-00-00
_audit_creation_method            'LanYouShi'
_symmetry_space_group_name_H-M    'P1'
_cell_length_a                    37.4089012
_cell_length_b                    37.4089012
_cell_length_c                    5.0117998
_cell_angle_alpha                 90.0000000
_cell_angle_beta                  90.0000000
_cell_angle_gamma                 120.0000000
loop_
_atom_site_label
_atom_site_type_symbol
_atom_site_fract_x
_atom_site_fract_y
_atom_site_fract_z
_atom_site_U_iso_or_equiv
_atom_site_adp_type
_atom_site_occupancy
        C1          C  0.3166700  0.1362000 -0.3657000    0.00000       Uiso       1.00
        C2          C  0.3599200  0.1606000 -0.3351200    0.00000       Uiso       1.00
        C3          C  0.3769100  0.1931100 -0.1487000    0.00000       Uiso       1.00
        C4          C  0.3495500  0.1995700  0.0046700    0.00000       Uiso       1.00
        C5          C  0.3076900  0.1756600 -0.0200600    0.00000       Uiso       1.00
        C6          C  0.2894500  0.1434400 -0.2076400    0.00000       Uiso       1.00
        C7          C  0.2439000  0.1184000 -0.2458100    0.00000       Uiso       1.00
        C8          C  0.4218500  0.2192300 -0.1166500    0.00000       Uiso       1.00
        C9          C  0.2189000  0.1366300 -0.2319100    0.00000       Uiso       1.00
       C10          C  0.1762100  0.1130200 -0.2714500    0.00000       Uiso       1.00
       C11          C  0.1575100  0.0705700 -0.3307100    0.00000       Uiso       1.00
       C12          C  0.1825400  0.0524900 -0.3473400    0.00000       Uiso       1.00
       C13          C  0.2251200  0.0759700 -0.3037700    0.00000       Uiso       1.00
       C14          C  0.4436700  0.2060600  0.0449200    0.00000       Uiso       1.00
       C15          C  0.4863400  0.2311800  0.0790000    0.00000       Uiso       1.00
       C16          C  0.5079100  0.2695100 -0.0532800    0.00000       Uiso       1.00
       C17          C  0.4856700  0.2826600 -0.2121700    0.00000       Uiso       1.00
       C18          C  0.4429300  0.2578100 -0.2426000    0.00000       Uiso       1.00
        N1          N  0.3586600  0.2307500  0.1962300    0.00000       Uiso       1.00
       C19          C  0.3182700  0.2223000  0.2756100    0.00000       Uiso       1.00
        N2          N  0.2880900  0.1904100  0.1570900    0.00000       Uiso       1.00
       C20          C  0.3108000  0.2486100  0.4693800    0.00000       Uiso       1.00
        N3          N  0.3499200  0.2825800  0.5707600    0.00000       Uiso       1.00
       C21          C  0.3457200  0.3195200  0.5805801    0.00000       Uiso       1.00
       C22          C  0.3023500  0.3076200  0.4894600    0.00000       Uiso       1.00
       C23          C  0.2876700  0.2678100  0.3381100    0.00000       Uiso       1.00
        N4          N  0.1136700  0.0450400 -0.3749300    0.00000       Uiso       1.00
        N5          N  0.5519000  0.2958600 -0.0254000    0.00000       Uiso       1.00
       C24          C  0.0836500  0.0571400 -0.3111500    0.00000       Uiso       1.00
       C25          C  0.5789000  0.2807200  0.0550500    0.00000       Uiso       1.00
       C26          C  0.0435900  0.0296700 -0.2572700    0.00000       Uiso       1.00
       C27          C  0.6189800  0.3058300  0.1208600    0.00000       Uiso       1.00
       C28          C  0.0137800  0.0446300 -0.2248000    0.00000       Uiso       1.00
       C29          C  0.6463700  0.2880400  0.1552500    0.00000       Uiso       1.00
        O1          O  0.0263000  0.0804100 -0.1582700    0.00000       Uiso       1.00
        O2          O  0.6316700  0.2519800  0.2225800    0.00000       Uiso       1.00
        H1          H  0.3047000  0.1123700 -0.5174700    0.00000       Uiso       1.00
        H2          H  0.3799900  0.1545100 -0.4593200    0.00000       Uiso       1.00
        H3          H  0.2322100  0.1693600 -0.1954300    0.00000       Uiso       1.00
        H4          H  0.1585500  0.1286300 -0.2589200    0.00000       Uiso       1.00
        H5          H  0.1689100  0.0198700 -0.3916300    0.00000       Uiso       1.00
        H6          H  0.2432900  0.0607400 -0.3133400    0.00000       Uiso       1.00
        H7          H  0.4275800  0.1765300  0.1462500    0.00000       Uiso       1.00
        H8          H  0.5021600  0.2206600  0.2106000    0.00000       Uiso       1.00
        H9          H  0.5015100  0.3122300 -0.3133000    0.00000       Uiso       1.00
       H10          H  0.4263300  0.2686600 -0.3638900    0.00000       Uiso       1.00
       H11          H  0.3873500  0.2563700  0.2407700    0.00000       Uiso       1.00
       H12          H  0.2919600  0.2289100  0.6386001    0.00000       Uiso       1.00
       H13          H  0.3548100  0.2754000  0.7644801    0.00000       Uiso       1.00
       H14          H  0.3687900  0.3430600  0.4426200    0.00000       Uiso       1.00
       H15          H  0.3516100  0.3328700  0.7854800    0.00000       Uiso       1.00
       H16          H  0.3023200  0.3319300  0.3613900    0.00000       Uiso       1.00
       H17          H  0.2821700  0.3020400  0.6662800    0.00000       Uiso       1.00
       H18          H  0.2965400  0.2749800  0.1242000    0.00000       Uiso       1.00
       H19          H  0.2536100  0.2473600  0.3541000    0.00000       Uiso       1.00
       H20          H  0.1034800  0.0162000 -0.4633600    0.00000       Uiso       1.00
       H21          H  0.5649000  0.3257100 -0.1035200    0.00000       Uiso       1.00
       H22          H  0.0929300  0.0895300 -0.3214900    0.00000       Uiso       1.00
       H23          H  0.5673299  0.2477900  0.0409300    0.00000       Uiso       1.00
       C30          C  0.8637999  0.1804700 -0.3657000    0.00000       Uiso       1.00
       C31          C  0.8393999  0.1993200 -0.3351200    0.00000       Uiso       1.00
       C32          C  0.8068900  0.1838000 -0.1487000    0.00000       Uiso       1.00
       C33          C  0.8004300  0.1499800  0.0046700    0.00000       Uiso       1.00
       C34          C  0.8243400  0.1320300 -0.0200600    0.00000       Uiso       1.00
       C35          C  0.8565599  0.1460100 -0.2076400    0.00000       Uiso       1.00
       C36          C  0.8816000  0.1255000 -0.2458100    0.00000       Uiso       1.00
       C37          C  0.7807699  0.2026200 -0.1166500    0.00000       Uiso       1.00
       C38          C  0.8633700  0.0822700 -0.2319100    0.00000       Uiso       1.00
       C39          C  0.8869800  0.0631900 -0.2714500    0.00000       Uiso       1.00
       C40          C  0.9294299  0.0869400 -0.3307100    0.00000       Uiso       1.00
       C41          C  0.9475100  0.1300500 -0.3473400    0.00000       Uiso       1.00
       C42          C  0.9240300  0.1491500 -0.3037700    0.00000       Uiso       1.00
       C43          C  0.7939399  0.2376100  0.0449200    0.00000       Uiso       1.00
       C44          C  0.7688200  0.2551600  0.0790000    0.00000       Uiso       1.00
       C45          C  0.7304900  0.2384000 -0.0532800    0.00000       Uiso       1.00
       C46          C  0.7173400  0.2030100 -0.2121700    0.00000       Uiso       1.00
       C47          C  0.7421899  0.1851200 -0.2426000    0.00000       Uiso       1.00
        N6          N  0.7692500  0.1279100  0.1962300    0.00000       Uiso       1.00
       C48          C  0.7777000  0.0959700  0.2756100    0.00000       Uiso       1.00
        N7          N  0.8095900  0.0976800  0.1570900    0.00000       Uiso       1.00
       C49          C  0.7513900  0.0621900  0.4693800    0.00000       Uiso       1.00
        N8          N  0.7174200  0.0673400  0.5707600    0.00000       Uiso       1.00
       C50          C  0.6804800  0.0262000  0.5805801    0.00000       Uiso       1.00
       C51          C  0.6923800  0.9947300  0.4894600    0.00000       Uiso       1.00
       C52          C  0.7321900  0.0198600  0.3381100    0.00000       Uiso       1.00
        N9          N  0.9549599  0.0686300 -0.3749300    0.00000       Uiso       1.00
       N10          N  0.7041399  0.2560400 -0.0254000    0.00000       Uiso       1.00
       C53          C  0.9428600  0.0265100 -0.3111500    0.00000       Uiso       1.00
       C54          C  0.7192800  0.2981800  0.0550500    0.00000       Uiso       1.00
       C55          C  0.9703300  0.0139200 -0.2572700    0.00000       Uiso       1.00
       C56          C  0.6941700  0.3131500  0.1208600    0.00000       Uiso       1.00
       C57          C  0.9553699  0.9691499 -0.2248000    0.00000       Uiso       1.00
       C58          C  0.7119600  0.3583300  0.1552500    0.00000       Uiso       1.00
        O3          O  0.9195899  0.9458899 -0.1582700    0.00000       Uiso       1.00
        O4          O  0.7480199  0.3796900  0.2225800    0.00000       Uiso       1.00
       H24          H  0.8876300  0.1923300 -0.5174700    0.00000       Uiso       1.00
       H25          H  0.8454900  0.2254800 -0.4593200    0.00000       Uiso       1.00
       H26          H  0.8306400  0.0628500 -0.1954300    0.00000       Uiso       1.00
       H27          H  0.8713700  0.0299200 -0.2589200    0.00000       Uiso       1.00
       H28          H  0.9801299  0.1490400 -0.3916300    0.00000       Uiso       1.00
       H29          H  0.9392599  0.1825500 -0.3133400    0.00000       Uiso       1.00
       H30          H  0.8234699  0.2510500  0.1462500    0.00000       Uiso       1.00
       H31          H  0.7793400  0.2815000  0.2106000    0.00000       Uiso       1.00
       H32          H  0.6877700  0.1892800 -0.3133000    0.00000       Uiso       1.00
       H33          H  0.7313400  0.1576700 -0.3638900    0.00000       Uiso       1.00
       H34          H  0.7436300  0.1309800  0.2407700    0.00000       Uiso       1.00
       H35          H  0.7710900  0.0630500  0.6386001    0.00000       Uiso       1.00
       H36          H  0.7246000  0.0794100  0.7644801    0.00000       Uiso       1.00
       H37          H  0.6569400  0.0257300  0.4426200    0.00000       Uiso       1.00
       H38          H  0.6671299  0.0187400  0.7854800    0.00000       Uiso       1.00
       H39          H  0.6680700  0.9703900  0.3613900    0.00000       Uiso       1.00
       H40          H  0.6979600  0.9801300  0.6662800    0.00000       Uiso       1.00
       H41          H  0.7250200  0.0215600  0.1242000    0.00000       Uiso       1.00
       H42          H  0.7526400  0.0062500  0.3541000    0.00000       Uiso       1.00
       H43          H  0.9838000  0.0872800 -0.4633600    0.00000       Uiso       1.00
       H44          H  0.6742900  0.2391900 -0.1035200    0.00000       Uiso       1.00
       H45          H  0.9104699  0.0034000 -0.3214900    0.00000       Uiso       1.00
       H46          H  0.7522100  0.3195400  0.0409300    0.00000       Uiso       1.00
       C59          C  0.8195300  0.6833300 -0.3657000    0.00000       Uiso       1.00
       C60          C  0.8006800  0.6400800 -0.3351200    0.00000       Uiso       1.00
       C61          C  0.8162000  0.6230900 -0.1487000    0.00000       Uiso       1.00
       C62          C  0.8500200  0.6504500  0.0046700    0.00000       Uiso       1.00
       C63          C  0.8679699  0.6923100 -0.0200600    0.00000       Uiso       1.00
       C64          C  0.8539900  0.7105500 -0.2076400    0.00000       Uiso       1.00
       C65          C  0.8744999  0.7560999 -0.2458100    0.00000       Uiso       1.00
       C66          C  0.7973800  0.5781500 -0.1166500    0.00000       Uiso       1.00
       C67          C  0.9177300  0.7811000 -0.2319100    0.00000       Uiso       1.00
       C68          C  0.9368100  0.8237900 -0.2714500    0.00000       Uiso       1.00
       C69          C  0.9130599  0.8424900 -0.3307100    0.00000       Uiso       1.00
       C70          C  0.8699500  0.8174600 -0.3473400    0.00000       Uiso       1.00
       C71          C  0.8508500  0.7748800 -0.3037700    0.00000       Uiso       1.00
       C72          C  0.7623900  0.5563300  0.0449200    0.00000       Uiso       1.00
       C73          C  0.7448400  0.5136600  0.0790000    0.00000       Uiso       1.00
       C74          C  0.7616000  0.4920900 -0.0532800    0.00000       Uiso       1.00
       C75          C  0.7969900  0.5143300 -0.2121700    0.00000       Uiso       1.00
       C76          C  0.8148800  0.5570700 -0.2426000    0.00000       Uiso       1.00
       N11          N  0.8720900  0.6413400  0.1962300    0.00000       Uiso       1.00
       C77          C  0.9040300  0.6817300  0.2756100    0.00000       Uiso       1.00
       N12          N  0.9023200  0.7119099  0.1570900    0.00000       Uiso       1.00
       C78          C  0.9378100  0.6892000  0.4693800    0.00000       Uiso       1.00
       N13          N  0.9326600  0.6500800  0.5707600    0.00000       Uiso       1.00
       C79          C  0.9738000  0.6542799  0.5805801    0.00000       Uiso       1.00
       C80          C  0.0052700  0.6976500  0.4894600    0.00000       Uiso       1.00
       C81          C  0.9801400  0.7123300  0.3381100    0.00000       Uiso       1.00
       N14          N  0.9313700  0.8863299 -0.3749300    0.00000       Uiso       1.00
       N15          N  0.7439600  0.4481000 -0.0254000    0.00000       Uiso       1.00
       C82          C  0.9734899  0.9163500 -0.3111500    0.00000       Uiso       1.00
       C83          C  0.7018200  0.4211000  0.0550500    0.00000       Uiso       1.00
       C84          C  0.9860800  0.9564100 -0.2572700    0.00000       Uiso       1.00
       C85          C  0.6868500  0.3810200  0.1208600    0.00000       Uiso       1.00
       C86          C  0.0308500  0.9862199 -0.2248000    0.00000       Uiso       1.00
       C87          C  0.6416699  0.3536300  0.1552500    0.00000       Uiso       1.00
        O5          O  0.0541100  0.9737000 -0.1582700    0.00000       Uiso       1.00
        O6          O  0.6203099  0.3683300  0.2225800    0.00000       Uiso       1.00
       H47          H  0.8076699  0.6953000 -0.5174700    0.00000       Uiso       1.00
       H48          H  0.7745200  0.6200100 -0.4593200    0.00000       Uiso       1.00
       H49          H  0.9371500  0.7677900 -0.1954300    0.00000       Uiso       1.00
       H50          H  0.9700800  0.8414500 -0.2589200    0.00000       Uiso       1.00
       H51          H  0.8509600  0.8310900 -0.3916300    0.00000       Uiso       1.00
       H52          H  0.8174500  0.7567099 -0.3133400    0.00000       Uiso       1.00
       H53          H  0.7489500  0.5724200  0.1462500    0.00000       Uiso       1.00
       H54          H  0.7185000  0.4978400  0.2106000    0.00000       Uiso       1.00
       H55          H  0.8107200  0.4984900 -0.3133000    0.00000       Uiso       1.00
       H56          H  0.8423300  0.5736700 -0.3638900    0.00000       Uiso       1.00
       H57          H  0.8690200  0.6126500  0.2407700    0.00000       Uiso       1.00
       H58          H  0.9369500  0.7080400  0.6386001    0.00000       Uiso       1.00
       H59          H  0.9205900  0.6451900  0.7644801    0.00000       Uiso       1.00
       H60          H  0.9742699  0.6312100  0.4426200    0.00000       Uiso       1.00
       H61          H  0.9812599  0.6483900  0.7854800    0.00000       Uiso       1.00
       H62          H  0.0296100  0.6976800  0.3613900    0.00000       Uiso       1.00
       H63          H  0.0198700  0.7178300  0.6662800    0.00000       Uiso       1.00
       H64          H  0.9784400  0.7034600  0.1242000    0.00000       Uiso       1.00
       H65          H  0.9937499  0.7463900  0.3541000    0.00000       Uiso       1.00
       H66          H  0.9127200  0.8965200 -0.4633600    0.00000       Uiso       1.00
       H67          H  0.7608100  0.4351000 -0.1035200    0.00000       Uiso       1.00
       H68          H  0.9966000  0.9070699 -0.3214900    0.00000       Uiso       1.00
       H69          H  0.6804600  0.4326700  0.0409300    0.00000       Uiso       1.00
