data_crystal

_cell_length_a    27.37130
_cell_length_b    22.81990
_cell_length_c    9.43560
_cell_angle_alpha 90.00000
_cell_angle_beta  90.00000
_cell_angle_gamma 90.00000

_space_group_name_Hall 'P 1'
_space_group_name_H-M_alt  'P 1'

loop_
_symmetry_equiv_pos_as_xyz
'x,y,z' 

loop_
_atom_site_label
_atom_site_type_symbol
_atom_site_fract_x
_atom_site_fract_y
_atom_site_fract_z
C          C       0.72732   0.19429   0.04436 
C          C       0.27268   0.80570   0.04436 
C          C       0.27268   0.19429  -0.04436 
C          C       0.72732   0.80570  -0.04436 
N          N       0.72676   0.24643  -0.02396 
N          N       0.27324   0.75356  -0.02396 
N          N       0.27324   0.24643   0.02396 
N          N       0.72676   0.75356   0.02396 
C          C       0.69595   0.29268  -0.01281 
C          C       0.36527   0.60549  -0.00598 
C          C       0.30405   0.70732  -0.01281 
C          C       0.63473   0.39451  -0.00598 
C          C       0.30405   0.29268   0.01281 
C          C       0.63473   0.60549   0.00598 
C          C       0.69595   0.70732   0.01281 
C          C       0.36527   0.39451   0.00598 
C          C       0.70364   0.33931  -0.10773 
C          C       0.37155   0.65172   0.09238 
C          C       0.29636   0.66069  -0.10773 
C          C       0.62845   0.34828   0.09238 
C          C       0.29636   0.33931   0.10773 
C          C       0.62845   0.65172  -0.09238 
C          C       0.70364   0.66069   0.10773 
C          C       0.37155   0.34828  -0.09238 
C          C       0.67322   0.38903  -0.10569 
C          C       0.34221   0.70237   0.08729 
C          C       0.32678   0.61097  -0.10569 
C          C       0.65779   0.29763   0.08729 
C          C       0.32678   0.38903   0.10569 
C          C       0.65779   0.70237  -0.08729 
C          C       0.67322   0.61097   0.10569 
C          C       0.34221   0.29763  -0.08729 
H          H       0.70019   0.18487   0.11531 
H          H       0.29981   0.81512   0.11531 
H          H       0.29981   0.18487  -0.11531 
H          H       0.70019   0.81512  -0.11531 
H          H       0.73140   0.33695  -0.18023 
H          H       0.39763   0.64876   0.16986 
H          H       0.26860   0.66305  -0.18023 
H          H       0.60237   0.35124   0.16986 
H          H       0.26860   0.33695   0.18023 
H          H       0.60237   0.64876  -0.16986 
H          H       0.73140   0.66305   0.18023 
H          H       0.39763   0.35124  -0.16986 
H          H       0.67937   0.42134  -0.17889 
H          H       0.34860   0.73499   0.15887 
H          H       0.32063   0.57866  -0.17889 
H          H       0.65140   0.26501   0.15887 
H          H       0.32063   0.42134   0.17889 
H          H       0.65140   0.73499  -0.15887 
H          H       0.67937   0.57866   0.17889 
H          H       0.34860   0.26501  -0.15887 
S          S       0.94132   0.93697   0.00212 
S          S       0.05868   0.06302   0.00212 
S          S       0.05868   0.93697  -0.00212 
S          S       0.94132   0.06302  -0.00212 
C          C       0.97525   0.00000   0.00000 
C          C       0.02475   0.00000   0.00000 
C          C       0.88374   0.96911   0.00242 
C          C       0.11625   0.03089   0.00242 
C          C       0.11625   0.96911  -0.00242 
C          C       0.88374   0.03089  -0.00242 
C          C       0.84312   0.93055   0.00038 
C          C       0.15688   0.06945   0.00038 
C          C       0.15688   0.93055  -0.00038 
C          C       0.84312   0.06945  -0.00038 
C          C       0.84219   0.87891   0.08388 
C          C       0.15781   0.12109   0.08388 
C          C       0.15781   0.87891  -0.08388 
C          C       0.84219   0.12109  -0.08388 
C          C       0.80386   0.83796   0.07212 
C          C       0.19614   0.16204   0.07212 
C          C       0.19614   0.83796  -0.07212 
C          C       0.80386   0.16204  -0.07212 
C          C       0.76473   0.84727  -0.02326 
C          C       0.23527   0.15272  -0.02326 
C          C       0.23527   0.84727   0.02326 
C          C       0.76473   0.15272   0.02326 
C          C       0.76428   0.90004  -0.10157 
C          C       0.23572   0.09995  -0.10157 
C          C       0.23572   0.90004   0.10157 
C          C       0.76428   0.09995   0.10157 
C          C       0.80269   0.94061  -0.08932 
C          C       0.19731   0.05939  -0.08932 
C          C       0.19731   0.94061   0.08932 
C          C       0.80269   0.05939   0.08932 
H          H       0.86996   0.87035   0.15379 
H          H       0.13004   0.12965   0.15379 
H          H       0.13004   0.87035  -0.15379 
H          H       0.86996   0.12965  -0.15379 
H          H       0.80507   0.80088   0.13312 
H          H       0.19493   0.19912   0.13312 
H          H       0.19493   0.80088  -0.13312 
H          H       0.80507   0.19912  -0.13312 
H          H       0.73628   0.90918  -0.17013 
H          H       0.26372   0.09081  -0.17013 
H          H       0.26372   0.90918   0.17013 
H          H       0.73628   0.09081   0.17013 
H          H       0.80112   0.97762  -0.14833 
H          H       0.19888   0.02238  -0.14833 
H          H       0.19888   0.97762   0.14833 
H          H       0.80112   0.02238   0.14833 
C          C       0.60491   0.44559  -0.00343 
C          C       0.55274   0.44594  -0.00287 
C          C       0.52542   0.60654   0.00547 
H          H       0.54188   0.64642   0.01478 
C          C       0.39509   0.55441  -0.00343 
C          C       0.44726   0.55406  -0.00287 
C          C       0.47458   0.39346   0.00547 
H          H       0.45812   0.35358   0.01478 
C          C       0.39509   0.44559   0.00343 
C          C       0.44726   0.44594   0.00287 
C          C       0.47458   0.60654  -0.00547 
H          H       0.45812   0.64642  -0.01478 
C          C       0.60491   0.55441   0.00343 
C          C       0.55274   0.55406   0.00287 
C          C       0.52542   0.39346  -0.00547 
H          H       0.54188   0.35358  -0.01478 
C          C       0.62938   0.50000   0.00000 
C          C       0.52630   0.50000   0.00000 
H          H       0.66687   0.50000   0.00000 
C          C       0.37062   0.50000   0.00000 
C          C       0.47370   0.50000   0.00000 
H          H       0.33313   0.50000   0.00000 
C          C       0.72732   0.19429   0.54436 
C          C       0.27268   0.80570   0.54436 
C          C       0.27268   0.19429   0.45564 
C          C       0.72732   0.80570   0.45564 
N          N       0.72676   0.24643   0.47604 
N          N       0.27324   0.75356   0.47604 
N          N       0.27324   0.24643   0.52396 
N          N       0.72676   0.75356   0.52396 
C          C       0.69595   0.29268   0.48719 
C          C       0.36527   0.60549   0.49401 
C          C       0.30405   0.70732   0.48719 
C          C       0.63473   0.39451   0.49401 
C          C       0.30405   0.29268   0.51281 
C          C       0.63473   0.60549   0.50599 
C          C       0.69595   0.70732   0.51281 
C          C       0.36527   0.39451   0.50599 
C          C       0.70364   0.33931   0.39227 
C          C       0.37155   0.65172   0.59238 
C          C       0.29636   0.66069   0.39227 
C          C       0.62845   0.34828   0.59238 
C          C       0.29636   0.33931   0.60773 
C          C       0.62845   0.65172   0.40762 
C          C       0.70364   0.66069   0.60773 
C          C       0.37155   0.34828   0.40762 
C          C       0.67322   0.38903   0.39431 
C          C       0.34221   0.70237   0.58729 
C          C       0.32678   0.61097   0.39431 
C          C       0.65779   0.29763   0.58729 
C          C       0.32678   0.38903   0.60569 
C          C       0.65779   0.70237   0.41271 
C          C       0.67322   0.61097   0.60569 
C          C       0.34221   0.29763   0.41271 
H          H       0.70019   0.18487   0.61531 
H          H       0.29981   0.81512   0.61531 
H          H       0.29981   0.18487   0.38469 
H          H       0.70019   0.81512   0.38469 
H          H       0.73140   0.33695   0.31977 
H          H       0.39763   0.64876   0.66986 
H          H       0.26860   0.66305   0.31977 
H          H       0.60237   0.35124   0.66986 
H          H       0.26860   0.33695   0.68023 
H          H       0.60237   0.64876   0.33014 
H          H       0.73140   0.66305   0.68023 
H          H       0.39763   0.35124   0.33014 
H          H       0.67937   0.42134   0.32111 
H          H       0.34860   0.73499   0.65887 
H          H       0.32063   0.57866   0.32111 
H          H       0.65140   0.26501   0.65887 
H          H       0.32063   0.42134   0.67889 
H          H       0.65140   0.73499   0.34113 
H          H       0.67937   0.57866   0.67889 
H          H       0.34860   0.26501   0.34113 
S          S       0.94132   0.93697   0.50211 
S          S       0.05868   0.06302   0.50211 
S          S       0.05868   0.93697   0.49788 
S          S       0.94132   0.06302   0.49788 
C          C       0.97525   0.00000   0.50000 
C          C       0.02475   0.00000   0.50000 
C          C       0.88374   0.96911   0.50242 
C          C       0.11625   0.03089   0.50242 
C          C       0.11625   0.96911   0.49758 
C          C       0.88374   0.03089   0.49758 
C          C       0.84312   0.93055   0.50038 
C          C       0.15688   0.06945   0.50038 
C          C       0.15688   0.93055   0.49962 
C          C       0.84312   0.06945   0.49962 
C          C       0.84219   0.87891   0.58388 
C          C       0.15781   0.12109   0.58388 
C          C       0.15781   0.87891   0.41612 
C          C       0.84219   0.12109   0.41612 
C          C       0.80386   0.83796   0.57212 
C          C       0.19614   0.16204   0.57212 
C          C       0.19614   0.83796   0.42788 
C          C       0.80386   0.16204   0.42788 
C          C       0.76473   0.84727   0.47674 
C          C       0.23527   0.15272   0.47674 
C          C       0.23527   0.84727   0.52326 
C          C       0.76473   0.15272   0.52326 
C          C       0.76428   0.90004   0.39843 
C          C       0.23572   0.09995   0.39843 
C          C       0.23572   0.90004   0.60157 
C          C       0.76428   0.09995   0.60157 
C          C       0.80269   0.94061   0.41068 
C          C       0.19731   0.05939   0.41068 
C          C       0.19731   0.94061   0.58932 
C          C       0.80269   0.05939   0.58932 
H          H       0.86996   0.87035   0.65380 
H          H       0.13004   0.12965   0.65380 
H          H       0.13004   0.87035   0.34620 
H          H       0.86996   0.12965   0.34620 
H          H       0.80507   0.80088   0.63312 
H          H       0.19493   0.19912   0.63312 
H          H       0.19493   0.80088   0.36688 
H          H       0.80507   0.19912   0.36688 
H          H       0.73628   0.90918   0.32987 
H          H       0.26372   0.09081   0.32987 
H          H       0.26372   0.90918   0.67013 
H          H       0.73628   0.09081   0.67013 
H          H       0.80112   0.97762   0.35167 
H          H       0.19888   0.02238   0.35167 
H          H       0.19888   0.97762   0.64833 
H          H       0.80112   0.02238   0.64833 
C          C       0.60491   0.44559   0.49657 
C          C       0.55274   0.44594   0.49713 
C          C       0.52542   0.60654   0.50546 
H          H       0.54188   0.64642   0.51478 
C          C       0.39509   0.55441   0.49657 
C          C       0.44726   0.55406   0.49713 
C          C       0.47458   0.39346   0.50546 
H          H       0.45812   0.35358   0.51478 
C          C       0.39509   0.44559   0.50343 
C          C       0.44726   0.44594   0.50287 
C          C       0.47458   0.60654   0.49454 
H          H       0.45812   0.64642   0.48522 
C          C       0.60491   0.55441   0.50343 
C          C       0.55274   0.55406   0.50287 
C          C       0.52542   0.39346   0.49454 
H          H       0.54188   0.35358   0.48522 
C          C       0.62938   0.50000   0.50000 
C          C       0.52630   0.50000   0.50000 
H          H       0.66687   0.50000   0.50000 
C          C       0.37062   0.50000   0.50000 
C          C       0.47370   0.50000   0.50000 
H          H       0.33313   0.50000   0.50000 
