data_crystal
 
_cell_length_a    27.37130
_cell_length_b    22.81990
_cell_length_c    4.71780
_cell_angle_alpha 90.00000
_cell_angle_beta  90.00000
_cell_angle_gamma 90.00000
 
_symmetry_space_group_name_Hall 'P 1'
_symmetry_space_group_name_H-M  'P 1'
 
loop_
_symmetry_equiv_pos_as_xyz
 'x,y,z' 
 
loop_
_atom_site_label
_atom_site_type_symbol
_atom_site_fract_x
_atom_site_fract_y
_atom_site_fract_z
_atom_site_charge
C          C       0.72732   0.19429   0.08872   0.0000000000
C          C       0.27268   0.80570   0.08872   0.0000000000
C          C       0.27268   0.19429  -0.08872   0.0000000000
C          C       0.72732   0.80570  -0.08872   0.0000000000
N          N       0.72676   0.24643  -0.04792   0.0000000000
N          N       0.27324   0.75356  -0.04792   0.0000000000
N          N       0.27324   0.24643   0.04792   0.0000000000
N          N       0.72676   0.75356   0.04792   0.0000000000
C          C       0.69595   0.29268  -0.02562   0.0000000000
C          C       0.36527   0.60549  -0.01197   0.0000000000
C          C       0.30405   0.70732  -0.02562   0.0000000000
C          C       0.63473   0.39451  -0.01197   0.0000000000
C          C       0.30405   0.29268   0.02562   0.0000000000
C          C       0.63473   0.60549   0.01197   0.0000000000
C          C       0.69595   0.70732   0.02562   0.0000000000
C          C       0.36527   0.39451   0.01197   0.0000000000
C          C       0.70364   0.33931  -0.21547   0.0000000000
C          C       0.37155   0.65172   0.18476   0.0000000000
C          C       0.29636   0.66069  -0.21547   0.0000000000
C          C       0.62845   0.34828   0.18476   0.0000000000
C          C       0.29636   0.33931   0.21547   0.0000000000
C          C       0.62845   0.65172  -0.18476   0.0000000000
C          C       0.70364   0.66069   0.21547   0.0000000000
C          C       0.37155   0.34828  -0.18476   0.0000000000
C          C       0.67322   0.38903  -0.21138   0.0000000000
C          C       0.34221   0.70237   0.17458   0.0000000000
C          C       0.32678   0.61097  -0.21138   0.0000000000
C          C       0.65779   0.29763   0.17458   0.0000000000
C          C       0.32678   0.38903   0.21138   0.0000000000
C          C       0.65779   0.70237  -0.17458   0.0000000000
C          C       0.67322   0.61097   0.21138   0.0000000000
C          C       0.34221   0.29763  -0.17458   0.0000000000
H          H       0.70019   0.18487   0.23062   0.0000000000
H          H       0.29981   0.81512   0.23062   0.0000000000
H          H       0.29981   0.18487  -0.23062   0.0000000000
H          H       0.70019   0.81512  -0.23062   0.0000000000
H          H       0.73140   0.33695  -0.36046   0.0000000000
H          H       0.39763   0.64876   0.33972   0.0000000000
H          H       0.26860   0.66305  -0.36046   0.0000000000
H          H       0.60237   0.35124   0.33972   0.0000000000
H          H       0.26860   0.33695   0.36046   0.0000000000
H          H       0.60237   0.64876  -0.33972   0.0000000000
H          H       0.73140   0.66305   0.36046   0.0000000000
H          H       0.39763   0.35124  -0.33972   0.0000000000
H          H       0.67937   0.42134  -0.35778   0.0000000000
H          H       0.34860   0.73499   0.31774   0.0000000000
H          H       0.32063   0.57866  -0.35778   0.0000000000
H          H       0.65140   0.26501   0.31774   0.0000000000
H          H       0.32063   0.42134   0.35778   0.0000000000
H          H       0.65140   0.73499  -0.31774   0.0000000000
H          H       0.67937   0.57866   0.35778   0.0000000000
H          H       0.34860   0.26501  -0.31774   0.0000000000
S          S       0.94132   0.93697   0.00423   0.0000000000
S          S       0.05868   0.06302   0.00423   0.0000000000
S          S       0.05868   0.93697  -0.00423   0.0000000000
S          S       0.94132   0.06302  -0.00423   0.0000000000
C          C       0.97525   0.00000   0.00000   0.0000000000
C          C       0.02475   0.00000   0.00000   0.0000000000
C          C       0.88374   0.96911   0.00484   0.0000000000
C          C       0.11625   0.03089   0.00484   0.0000000000
C          C       0.11625   0.96911  -0.00484   0.0000000000
C          C       0.88374   0.03089  -0.00484   0.0000000000
C          C       0.84312   0.93055   0.00075   0.0000000000
C          C       0.15688   0.06945   0.00075   0.0000000000
C          C       0.15688   0.93055  -0.00075   0.0000000000
C          C       0.84312   0.06945  -0.00075   0.0000000000
C          C       0.84219   0.87891   0.16776   0.0000000000
C          C       0.15781   0.12109   0.16776   0.0000000000
C          C       0.15781   0.87891  -0.16776   0.0000000000
C          C       0.84219   0.12109  -0.16776   0.0000000000
C          C       0.80386   0.83796   0.14424   0.0000000000
C          C       0.19614   0.16204   0.14424   0.0000000000
C          C       0.19614   0.83796  -0.14424   0.0000000000
C          C       0.80386   0.16204  -0.14424   0.0000000000
C          C       0.76473   0.84727  -0.04652   0.0000000000
C          C       0.23527   0.15272  -0.04652   0.0000000000
C          C       0.23527   0.84727   0.04652   0.0000000000
C          C       0.76473   0.15272   0.04652   0.0000000000
C          C       0.76428   0.90004  -0.20315   0.0000000000
C          C       0.23572   0.09995  -0.20315   0.0000000000
C          C       0.23572   0.90004   0.20315   0.0000000000
C          C       0.76428   0.09995   0.20315   0.0000000000
C          C       0.80269   0.94061  -0.17864   0.0000000000
C          C       0.19731   0.05939  -0.17864   0.0000000000
C          C       0.19731   0.94061   0.17864   0.0000000000
C          C       0.80269   0.05939   0.17864   0.0000000000
H          H       0.86996   0.87035   0.30759   0.0000000000
H          H       0.13004   0.12965   0.30759   0.0000000000
H          H       0.13004   0.87035  -0.30759   0.0000000000
H          H       0.86996   0.12965  -0.30759   0.0000000000
H          H       0.80507   0.80088   0.26624   0.0000000000
H          H       0.19493   0.19912   0.26624   0.0000000000
H          H       0.19493   0.80088  -0.26624   0.0000000000
H          H       0.80507   0.19912  -0.26624   0.0000000000
H          H       0.73628   0.90918  -0.34026   0.0000000000
H          H       0.26372   0.09081  -0.34026   0.0000000000
H          H       0.26372   0.90918   0.34026   0.0000000000
H          H       0.73628   0.09081   0.34026   0.0000000000
H          H       0.80112   0.97762  -0.29667   0.0000000000
H          H       0.19888   0.02238  -0.29667   0.0000000000
H          H       0.19888   0.97762   0.29667   0.0000000000
H          H       0.80112   0.02238   0.29667   0.0000000000
C          C       0.60491   0.44559  -0.00686   0.0000000000
C          C       0.55274   0.44594  -0.00575   0.0000000000
C          C       0.52542   0.60654   0.01093   0.0000000000
H          H       0.54188   0.64642   0.02957   0.0000000000
C          C       0.39509   0.55441  -0.00686   0.0000000000
C          C       0.44726   0.55406  -0.00575   0.0000000000
C          C       0.47458   0.39346   0.01093   0.0000000000
H          H       0.45812   0.35358   0.02957   0.0000000000
C          C       0.39509   0.44559   0.00686   0.0000000000
C          C       0.44726   0.44594   0.00575   0.0000000000
C          C       0.47458   0.60654  -0.01093   0.0000000000
H          H       0.45812   0.64642  -0.02957   0.0000000000
C          C       0.60491   0.55441   0.00686   0.0000000000
C          C       0.55274   0.55406   0.00575   0.0000000000
C          C       0.52542   0.39346  -0.01093   0.0000000000
H          H       0.54188   0.35358  -0.02957   0.0000000000
C          C       0.62938   0.50000   0.00000   0.0000000000
C          C       0.52630   0.50000   0.00000   0.0000000000
H          H       0.66687   0.50000   0.00000   0.0000000000
C          C       0.37062   0.50000   0.00000   0.0000000000
C          C       0.47370   0.50000   0.00000   0.0000000000
H          H       0.33313   0.50000   0.00000   0.0000000000
