data_crystal
 
_cell_length_a    38.00000
_cell_length_b    38.00000
_cell_length_c    9.20000
_cell_angle_alpha 90.00000
_cell_angle_beta  90.00000
_cell_angle_gamma 120.00000
 
_symmetry_space_group_name_Hall 'P 1'
_symmetry_space_group_name_H-M  'P 1'
 
loop_
_symmetry_equiv_pos_as_xyz
 'x,y,z' 
 
loop_
_atom_site_label
_atom_site_type_symbol
_atom_site_fract_x
_atom_site_fract_y
_atom_site_fract_z
_atom_site_charge
C          C       0.54958   0.96715   0.36503   0.0000000000
C          C       0.55638   0.93430   0.36384   0.0000000000
C          C       0.51933   0.91090   0.13925   0.0000000000
C          C       0.51247   0.94371   0.14004   0.0000000000
C          C       0.51581   0.61173   0.13584   0.0000000000
C          C       0.52269   0.57892   0.13654   0.0000000000
C          C       0.48880   0.55752   0.36808   0.0000000000
C          C       0.48198   0.59036   0.36699   0.0000000000
H          H       0.56111   0.98881   0.45388   0.0000000000
H          H       0.57301   0.93034   0.45214   0.0000000000
H          H       0.50705   0.88868   0.05229   0.0000000000
H          H       0.49503   0.94707   0.05328   0.0000000000
H          H       0.52685   0.63316   0.04627   0.0000000000
H          H       0.53888   0.57478   0.04713   0.0000000000
H          H       0.47854   0.53666   0.45942   0.0000000000
H          H       0.46662   0.59511   0.45778   0.0000000000
C          C       0.03285   0.58243   0.36503   0.0000000000
C          C       0.06570   0.62208   0.36384   0.0000000000
C          C       0.08910   0.60843   0.13925   0.0000000000
C          C       0.05629   0.56876   0.14004   0.0000000000
C          C       0.38827   0.90408   0.13584   0.0000000000
C          C       0.42108   0.94377   0.13654   0.0000000000
C          C       0.44248   0.93128   0.36808   0.0000000000
C          C       0.40964   0.89162   0.36699   0.0000000000
H          H       0.01119   0.57230   0.45388   0.0000000000
H          H       0.06966   0.64267   0.45214   0.0000000000
H          H       0.11132   0.61837   0.05229   0.0000000000
H          H       0.05293   0.54796   0.05328   0.0000000000
H          H       0.36684   0.89369   0.04627   0.0000000000
H          H       0.42522   0.96410   0.04713   0.0000000000
H          H       0.46334   0.94188   0.45942   0.0000000000
H          H       0.40489   0.87151   0.45778   0.0000000000
C          C       0.41757   0.45042   0.36503   0.0000000000
C          C       0.37792   0.44362   0.36384   0.0000000000
C          C       0.39157   0.48067   0.13925   0.0000000000
C          C       0.43124   0.48753   0.14004   0.0000000000
C          C       0.09592   0.48419   0.13584   0.0000000000
C          C       0.05623   0.47731   0.13654   0.0000000000
C          C       0.06872   0.51120   0.36808   0.0000000000
C          C       0.10838   0.51802   0.36699   0.0000000000
H          H       0.42770   0.43889   0.45388   0.0000000000
H          H       0.35733   0.42699   0.45214   0.0000000000
H          H       0.38163   0.49295   0.05229   0.0000000000
H          H       0.45204   0.50497   0.05328   0.0000000000
H          H       0.10631   0.47315   0.04627   0.0000000000
H          H       0.03590   0.46112   0.04713   0.0000000000
H          H       0.05812   0.52146   0.45942   0.0000000000
H          H       0.12849   0.53338   0.45778   0.0000000000
C          C       0.45042   0.03285   0.36503   0.0000000000
C          C       0.44362   0.06570   0.36384   0.0000000000
C          C       0.48067   0.08910   0.13925   0.0000000000
C          C       0.48753   0.05629   0.14004   0.0000000000
C          C       0.48419   0.38827   0.13584   0.0000000000
C          C       0.47731   0.42108   0.13654   0.0000000000
C          C       0.51120   0.44248   0.36808   0.0000000000
C          C       0.51802   0.40964   0.36699   0.0000000000
H          H       0.43889   0.01119   0.45388   0.0000000000
H          H       0.42699   0.06966   0.45214   0.0000000000
H          H       0.49295   0.11132   0.05229   0.0000000000
H          H       0.50497   0.05293   0.05328   0.0000000000
H          H       0.47315   0.36684   0.04627   0.0000000000
H          H       0.46112   0.42522   0.04713   0.0000000000
H          H       0.52146   0.46334   0.45942   0.0000000000
H          H       0.53338   0.40489   0.45778   0.0000000000
C          C       0.96715   0.41757   0.36503   0.0000000000
C          C       0.93430   0.37792   0.36384   0.0000000000
C          C       0.91090   0.39157   0.13925   0.0000000000
C          C       0.94371   0.43124   0.14004   0.0000000000
C          C       0.61173   0.09592   0.13584   0.0000000000
C          C       0.57892   0.05623   0.13654   0.0000000000
C          C       0.55752   0.06872   0.36808   0.0000000000
C          C       0.59036   0.10838   0.36699   0.0000000000
H          H       0.98881   0.42770   0.45388   0.0000000000
H          H       0.93034   0.35733   0.45214   0.0000000000
H          H       0.88868   0.38163   0.05229   0.0000000000
H          H       0.94707   0.45204   0.05328   0.0000000000
H          H       0.63316   0.10631   0.04627   0.0000000000
H          H       0.57478   0.03590   0.04713   0.0000000000
H          H       0.53666   0.05812   0.45942   0.0000000000
H          H       0.59511   0.12849   0.45778   0.0000000000
C          C       0.58243   0.54958   0.36503   0.0000000000
C          C       0.62208   0.55638   0.36384   0.0000000000
C          C       0.60843   0.51933   0.13925   0.0000000000
C          C       0.56876   0.51247   0.14004   0.0000000000
C          C       0.90408   0.51581   0.13584   0.0000000000
C          C       0.94377   0.52269   0.13654   0.0000000000
C          C       0.93128   0.48880   0.36808   0.0000000000
C          C       0.89162   0.48198   0.36699   0.0000000000
H          H       0.57230   0.56111   0.45388   0.0000000000
H          H       0.64267   0.57301   0.45214   0.0000000000
H          H       0.61837   0.50705   0.05229   0.0000000000
H          H       0.54796   0.49503   0.05328   0.0000000000
H          H       0.89369   0.52685   0.04627   0.0000000000
H          H       0.96410   0.53888   0.04713   0.0000000000
H          H       0.94188   0.47854   0.45942   0.0000000000
H          H       0.87151   0.46662   0.45778   0.0000000000
C          C       0.47228   0.02810   0.25000   0.0000000000
C          C       0.45820   0.09371   0.25000   0.0000000000
N          N       0.45181   0.12693   0.25000   0.0000000000
C          C       0.48288   0.16325   0.25000   0.0000000000
C          C       0.48157   0.20144   0.25000   0.0000000000
C          C       0.51837   0.23814   0.25000   0.0000000000
C          C       0.51839   0.27493   0.25000   0.0000000000
C          C       0.48169   0.27493   0.25000   0.0000000000
C          C       0.44490   0.23823   0.25000   0.0000000000
C          C       0.44488   0.20144   0.25000   0.0000000000
C          C       0.48038   0.31313   0.25000   0.0000000000
N          N       0.51146   0.34944   0.25000   0.0000000000
C          C       0.50506   0.38267   0.25000   0.0000000000
C          C       0.49095   0.44825   0.25000   0.0000000000
C          C       0.47965   0.99373   0.25000   0.0000000000
H          H       0.51355   0.16600   0.25000   0.0000000000
H          H       0.54710   0.23852   0.25000   0.0000000000
H          H       0.54706   0.30334   0.25000   0.0000000000
H          H       0.41617   0.23786   0.25000   0.0000000000
H          H       0.41621   0.17304   0.25000   0.0000000000
H          H       0.44972   0.30955   0.25000   0.0000000000
C          C       0.97190   0.44418   0.25000   0.0000000000
C          C       0.90629   0.36449   0.25000   0.0000000000
N          N       0.87307   0.32488   0.25000   0.0000000000
C          C       0.83675   0.31963   0.25000   0.0000000000
C          C       0.79856   0.28013   0.25000   0.0000000000
C          C       0.76186   0.28023   0.25000   0.0000000000
C          C       0.72507   0.24346   0.25000   0.0000000000
C          C       0.72507   0.20676   0.25000   0.0000000000
C          C       0.76177   0.20667   0.25000   0.0000000000
C          C       0.79856   0.24344   0.25000   0.0000000000
C          C       0.68687   0.16725   0.25000   0.0000000000
N          N       0.65056   0.16202   0.25000   0.0000000000
C          C       0.61733   0.12239   0.25000   0.0000000000
C          C       0.55175   0.04270   0.25000   0.0000000000
C          C       0.00627   0.48592   0.25000   0.0000000000
H          H       0.83400   0.34755   0.25000   0.0000000000
H          H       0.76148   0.30858   0.25000   0.0000000000
H          H       0.69666   0.24372   0.25000   0.0000000000
H          H       0.76214   0.17831   0.25000   0.0000000000
H          H       0.82696   0.24317   0.25000   0.0000000000
H          H       0.69045   0.14017   0.25000   0.0000000000
C          C       0.55582   0.52772   0.25000   0.0000000000
C          C       0.63551   0.54180   0.25000   0.0000000000
N          N       0.67512   0.54819   0.25000   0.0000000000
C          C       0.68037   0.51712   0.25000   0.0000000000
C          C       0.71987   0.51843   0.25000   0.0000000000
C          C       0.71977   0.48163   0.25000   0.0000000000
C          C       0.75654   0.48161   0.25000   0.0000000000
C          C       0.79324   0.51831   0.25000   0.0000000000
C          C       0.79333   0.55510   0.25000   0.0000000000
C          C       0.75656   0.55512   0.25000   0.0000000000
C          C       0.83275   0.51962   0.25000   0.0000000000
N          N       0.83798   0.48854   0.25000   0.0000000000
C          C       0.87761   0.49494   0.25000   0.0000000000
C          C       0.95730   0.50905   0.25000   0.0000000000
C          C       0.51408   0.52035   0.25000   0.0000000000
H          H       0.65245   0.48645   0.25000   0.0000000000
H          H       0.69142   0.45290   0.25000   0.0000000000
H          H       0.75628   0.45294   0.25000   0.0000000000
H          H       0.82169   0.58383   0.25000   0.0000000000
H          H       0.75683   0.58379   0.25000   0.0000000000
H          H       0.85983   0.55028   0.25000   0.0000000000
C          C       0.52772   0.97190   0.25000   0.0000000000
C          C       0.54180   0.90629   0.25000   0.0000000000
N          N       0.54819   0.87307   0.25000   0.0000000000
C          C       0.51712   0.83675   0.25000   0.0000000000
C          C       0.51843   0.79856   0.25000   0.0000000000
C          C       0.48163   0.76186   0.25000   0.0000000000
C          C       0.48161   0.72507   0.25000   0.0000000000
C          C       0.51831   0.72507   0.25000   0.0000000000
C          C       0.55510   0.76177   0.25000   0.0000000000
C          C       0.55512   0.79856   0.25000   0.0000000000
C          C       0.51962   0.68687   0.25000   0.0000000000
N          N       0.48854   0.65056   0.25000   0.0000000000
C          C       0.49494   0.61733   0.25000   0.0000000000
C          C       0.50905   0.55175   0.25000   0.0000000000
C          C       0.52035   0.00627   0.25000   0.0000000000
H          H       0.48645   0.83400   0.25000   0.0000000000
H          H       0.45290   0.76148   0.25000   0.0000000000
H          H       0.45294   0.69666   0.25000   0.0000000000
H          H       0.58383   0.76214   0.25000   0.0000000000
H          H       0.58379   0.82696   0.25000   0.0000000000
H          H       0.55028   0.69045   0.25000   0.0000000000
C          C       0.02810   0.55582   0.25000   0.0000000000
C          C       0.09371   0.63551   0.25000   0.0000000000
N          N       0.12693   0.67512   0.25000   0.0000000000
C          C       0.16325   0.68037   0.25000   0.0000000000
C          C       0.20144   0.71987   0.25000   0.0000000000
C          C       0.23814   0.71977   0.25000   0.0000000000
C          C       0.27493   0.75654   0.25000   0.0000000000
C          C       0.27493   0.79324   0.25000   0.0000000000
C          C       0.23823   0.79333   0.25000   0.0000000000
C          C       0.20144   0.75656   0.25000   0.0000000000
C          C       0.31313   0.83275   0.25000   0.0000000000
N          N       0.34944   0.83798   0.25000   0.0000000000
C          C       0.38267   0.87761   0.25000   0.0000000000
C          C       0.44825   0.95730   0.25000   0.0000000000
C          C       0.99373   0.51408   0.25000   0.0000000000
H          H       0.16600   0.65245   0.25000   0.0000000000
H          H       0.23852   0.69142   0.25000   0.0000000000
H          H       0.30334   0.75628   0.25000   0.0000000000
H          H       0.23786   0.82169   0.25000   0.0000000000
H          H       0.17304   0.75683   0.25000   0.0000000000
H          H       0.30955   0.85983   0.25000   0.0000000000
C          C       0.44418   0.47228   0.25000   0.0000000000
C          C       0.36449   0.45820   0.25000   0.0000000000
N          N       0.32488   0.45181   0.25000   0.0000000000
C          C       0.31963   0.48288   0.25000   0.0000000000
C          C       0.28013   0.48157   0.25000   0.0000000000
C          C       0.28023   0.51837   0.25000   0.0000000000
C          C       0.24346   0.51839   0.25000   0.0000000000
C          C       0.20676   0.48169   0.25000   0.0000000000
C          C       0.20667   0.44490   0.25000   0.0000000000
C          C       0.24344   0.44488   0.25000   0.0000000000
C          C       0.16725   0.48038   0.25000   0.0000000000
N          N       0.16202   0.51146   0.25000   0.0000000000
C          C       0.12239   0.50506   0.25000   0.0000000000
C          C       0.04270   0.49095   0.25000   0.0000000000
C          C       0.48592   0.47965   0.25000   0.0000000000
H          H       0.34755   0.51355   0.25000   0.0000000000
H          H       0.30858   0.54710   0.25000   0.0000000000
H          H       0.24372   0.54706   0.25000   0.0000000000
H          H       0.17831   0.41617   0.25000   0.0000000000
H          H       0.24317   0.41621   0.25000   0.0000000000
H          H       0.14017   0.44972   0.25000   0.0000000000
C          C       0.54958   0.96715   0.86503   0.0000000000
C          C       0.55638   0.93430   0.86384   0.0000000000
C          C       0.51933   0.91090   0.63925   0.0000000000
C          C       0.51247   0.94371   0.64004   0.0000000000
C          C       0.51581   0.61173   0.63584   0.0000000000
C          C       0.52269   0.57892   0.63654   0.0000000000
C          C       0.48880   0.55752   0.86808   0.0000000000
C          C       0.48198   0.59036   0.86699   0.0000000000
H          H       0.56111   0.98881   0.95388   0.0000000000
H          H       0.57301   0.93034   0.95214   0.0000000000
H          H       0.50705   0.88868   0.55229   0.0000000000
H          H       0.49503   0.94707   0.55327   0.0000000000
H          H       0.52685   0.63316   0.54627   0.0000000000
H          H       0.53888   0.57478   0.54713   0.0000000000
H          H       0.47854   0.53666   0.95942   0.0000000000
H          H       0.46662   0.59511   0.95778   0.0000000000
C          C       0.03285   0.58243   0.86503   0.0000000000
C          C       0.06570   0.62208   0.86384   0.0000000000
C          C       0.08910   0.60843   0.63925   0.0000000000
C          C       0.05629   0.56876   0.64004   0.0000000000
C          C       0.38827   0.90408   0.63584   0.0000000000
C          C       0.42108   0.94377   0.63654   0.0000000000
C          C       0.44248   0.93128   0.86808   0.0000000000
C          C       0.40964   0.89162   0.86699   0.0000000000
H          H       0.01119   0.57230   0.95388   0.0000000000
H          H       0.06966   0.64267   0.95214   0.0000000000
H          H       0.11132   0.61837   0.55229   0.0000000000
H          H       0.05293   0.54796   0.55327   0.0000000000
H          H       0.36684   0.89369   0.54627   0.0000000000
H          H       0.42522   0.96410   0.54713   0.0000000000
H          H       0.46334   0.94188   0.95942   0.0000000000
H          H       0.40489   0.87151   0.95778   0.0000000000
C          C       0.41757   0.45042   0.86503   0.0000000000
C          C       0.37792   0.44362   0.86384   0.0000000000
C          C       0.39157   0.48067   0.63925   0.0000000000
C          C       0.43124   0.48753   0.64004   0.0000000000
C          C       0.09592   0.48419   0.63584   0.0000000000
C          C       0.05623   0.47731   0.63654   0.0000000000
C          C       0.06872   0.51120   0.86808   0.0000000000
C          C       0.10838   0.51802   0.86699   0.0000000000
H          H       0.42770   0.43889   0.95388   0.0000000000
H          H       0.35733   0.42699   0.95214   0.0000000000
H          H       0.38163   0.49295   0.55229   0.0000000000
H          H       0.45204   0.50497   0.55327   0.0000000000
H          H       0.10631   0.47315   0.54627   0.0000000000
H          H       0.03590   0.46112   0.54713   0.0000000000
H          H       0.05812   0.52146   0.95942   0.0000000000
H          H       0.12849   0.53338   0.95778   0.0000000000
C          C       0.45042   0.03285   0.86503   0.0000000000
C          C       0.44362   0.06570   0.86384   0.0000000000
C          C       0.48067   0.08910   0.63925   0.0000000000
C          C       0.48753   0.05629   0.64004   0.0000000000
C          C       0.48419   0.38827   0.63584   0.0000000000
C          C       0.47731   0.42108   0.63654   0.0000000000
C          C       0.51120   0.44248   0.86808   0.0000000000
C          C       0.51802   0.40964   0.86699   0.0000000000
H          H       0.43889   0.01119   0.95388   0.0000000000
H          H       0.42699   0.06966   0.95214   0.0000000000
H          H       0.49295   0.11132   0.55229   0.0000000000
H          H       0.50497   0.05293   0.55327   0.0000000000
H          H       0.47315   0.36684   0.54627   0.0000000000
H          H       0.46112   0.42522   0.54713   0.0000000000
H          H       0.52146   0.46334   0.95942   0.0000000000
H          H       0.53338   0.40489   0.95778   0.0000000000
C          C       0.96715   0.41757   0.86503   0.0000000000
C          C       0.93430   0.37792   0.86384   0.0000000000
C          C       0.91090   0.39157   0.63925   0.0000000000
C          C       0.94371   0.43124   0.64004   0.0000000000
C          C       0.61173   0.09592   0.63584   0.0000000000
C          C       0.57892   0.05623   0.63654   0.0000000000
C          C       0.55752   0.06872   0.86808   0.0000000000
C          C       0.59036   0.10838   0.86699   0.0000000000
H          H       0.98881   0.42770   0.95388   0.0000000000
H          H       0.93034   0.35733   0.95214   0.0000000000
H          H       0.88868   0.38163   0.55229   0.0000000000
H          H       0.94707   0.45204   0.55327   0.0000000000
H          H       0.63316   0.10631   0.54627   0.0000000000
H          H       0.57478   0.03590   0.54713   0.0000000000
H          H       0.53666   0.05812   0.95942   0.0000000000
H          H       0.59511   0.12849   0.95778   0.0000000000
C          C       0.58243   0.54958   0.86503   0.0000000000
C          C       0.62208   0.55638   0.86384   0.0000000000
C          C       0.60843   0.51933   0.63925   0.0000000000
C          C       0.56876   0.51247   0.64004   0.0000000000
C          C       0.90408   0.51581   0.63584   0.0000000000
C          C       0.94377   0.52269   0.63654   0.0000000000
C          C       0.93128   0.48880   0.86808   0.0000000000
C          C       0.89162   0.48198   0.86699   0.0000000000
H          H       0.57230   0.56111   0.95388   0.0000000000
H          H       0.64267   0.57301   0.95214   0.0000000000
H          H       0.61837   0.50705   0.55229   0.0000000000
H          H       0.54796   0.49503   0.55327   0.0000000000
H          H       0.89369   0.52685   0.54627   0.0000000000
H          H       0.96410   0.53888   0.54713   0.0000000000
H          H       0.94188   0.47854   0.95942   0.0000000000
H          H       0.87151   0.46662   0.95778   0.0000000000
C          C       0.47228   0.02810   0.75000   0.0000000000
C          C       0.45820   0.09371   0.75000   0.0000000000
N          N       0.45181   0.12693   0.75000   0.0000000000
C          C       0.48288   0.16325   0.75000   0.0000000000
C          C       0.48157   0.20144   0.75000   0.0000000000
C          C       0.51837   0.23814   0.75000   0.0000000000
C          C       0.51839   0.27493   0.75000   0.0000000000
C          C       0.48169   0.27493   0.75000   0.0000000000
C          C       0.44490   0.23823   0.75000   0.0000000000
C          C       0.44488   0.20144   0.75000   0.0000000000
C          C       0.48038   0.31313   0.75000   0.0000000000
N          N       0.51146   0.34944   0.75000   0.0000000000
C          C       0.50506   0.38267   0.75000   0.0000000000
C          C       0.49095   0.44825   0.75000   0.0000000000
C          C       0.47965   0.99373   0.75000   0.0000000000
H          H       0.51355   0.16600   0.75000   0.0000000000
H          H       0.54710   0.23852   0.75000   0.0000000000
H          H       0.54706   0.30334   0.75000   0.0000000000
H          H       0.41617   0.23786   0.75000   0.0000000000
H          H       0.41621   0.17304   0.75000   0.0000000000
H          H       0.44972   0.30955   0.75000   0.0000000000
C          C       0.97190   0.44418   0.75000   0.0000000000
C          C       0.90629   0.36449   0.75000   0.0000000000
N          N       0.87307   0.32488   0.75000   0.0000000000
C          C       0.83675   0.31963   0.75000   0.0000000000
C          C       0.79856   0.28013   0.75000   0.0000000000
C          C       0.76186   0.28023   0.75000   0.0000000000
C          C       0.72507   0.24346   0.75000   0.0000000000
C          C       0.72507   0.20676   0.75000   0.0000000000
C          C       0.76177   0.20667   0.75000   0.0000000000
C          C       0.79856   0.24344   0.75000   0.0000000000
C          C       0.68687   0.16725   0.75000   0.0000000000
N          N       0.65056   0.16202   0.75000   0.0000000000
C          C       0.61733   0.12239   0.75000   0.0000000000
C          C       0.55175   0.04270   0.75000   0.0000000000
C          C       0.00627   0.48592   0.75000   0.0000000000
H          H       0.83400   0.34755   0.75000   0.0000000000
H          H       0.76148   0.30858   0.75000   0.0000000000
H          H       0.69666   0.24372   0.75000   0.0000000000
H          H       0.76214   0.17831   0.75000   0.0000000000
H          H       0.82696   0.24317   0.75000   0.0000000000
H          H       0.69045   0.14017   0.75000   0.0000000000
C          C       0.55582   0.52772   0.75000   0.0000000000
C          C       0.63551   0.54180   0.75000   0.0000000000
N          N       0.67512   0.54819   0.75000   0.0000000000
C          C       0.68037   0.51712   0.75000   0.0000000000
C          C       0.71987   0.51843   0.75000   0.0000000000
C          C       0.71977   0.48163   0.75000   0.0000000000
C          C       0.75654   0.48161   0.75000   0.0000000000
C          C       0.79324   0.51831   0.75000   0.0000000000
C          C       0.79333   0.55510   0.75000   0.0000000000
C          C       0.75656   0.55512   0.75000   0.0000000000
C          C       0.83275   0.51962   0.75000   0.0000000000
N          N       0.83798   0.48854   0.75000   0.0000000000
C          C       0.87761   0.49494   0.75000   0.0000000000
C          C       0.95730   0.50905   0.75000   0.0000000000
C          C       0.51408   0.52035   0.75000   0.0000000000
H          H       0.65245   0.48645   0.75000   0.0000000000
H          H       0.69142   0.45290   0.75000   0.0000000000
H          H       0.75628   0.45294   0.75000   0.0000000000
H          H       0.82169   0.58383   0.75000   0.0000000000
H          H       0.75683   0.58379   0.75000   0.0000000000
H          H       0.85983   0.55028   0.75000   0.0000000000
C          C       0.52772   0.97190   0.75000   0.0000000000
C          C       0.54180   0.90629   0.75000   0.0000000000
N          N       0.54819   0.87307   0.75000   0.0000000000
C          C       0.51712   0.83675   0.75000   0.0000000000
C          C       0.51843   0.79856   0.75000   0.0000000000
C          C       0.48163   0.76186   0.75000   0.0000000000
C          C       0.48161   0.72507   0.75000   0.0000000000
C          C       0.51831   0.72507   0.75000   0.0000000000
C          C       0.55510   0.76177   0.75000   0.0000000000
C          C       0.55512   0.79856   0.75000   0.0000000000
C          C       0.51962   0.68687   0.75000   0.0000000000
N          N       0.48854   0.65056   0.75000   0.0000000000
C          C       0.49494   0.61733   0.75000   0.0000000000
C          C       0.50905   0.55175   0.75000   0.0000000000
C          C       0.52035   0.00627   0.75000   0.0000000000
H          H       0.48645   0.83400   0.75000   0.0000000000
H          H       0.45290   0.76148   0.75000   0.0000000000
H          H       0.45294   0.69666   0.75000   0.0000000000
H          H       0.58383   0.76214   0.75000   0.0000000000
H          H       0.58379   0.82696   0.75000   0.0000000000
H          H       0.55028   0.69045   0.75000   0.0000000000
C          C       0.02810   0.55582   0.75000   0.0000000000
C          C       0.09371   0.63551   0.75000   0.0000000000
N          N       0.12693   0.67512   0.75000   0.0000000000
C          C       0.16325   0.68037   0.75000   0.0000000000
C          C       0.20144   0.71987   0.75000   0.0000000000
C          C       0.23814   0.71977   0.75000   0.0000000000
C          C       0.27493   0.75654   0.75000   0.0000000000
C          C       0.27493   0.79324   0.75000   0.0000000000
C          C       0.23823   0.79333   0.75000   0.0000000000
C          C       0.20144   0.75656   0.75000   0.0000000000
C          C       0.31313   0.83275   0.75000   0.0000000000
N          N       0.34944   0.83798   0.75000   0.0000000000
C          C       0.38267   0.87761   0.75000   0.0000000000
C          C       0.44825   0.95730   0.75000   0.0000000000
C          C       0.99373   0.51408   0.75000   0.0000000000
H          H       0.16600   0.65245   0.75000   0.0000000000
H          H       0.23852   0.69142   0.75000   0.0000000000
H          H       0.30334   0.75628   0.75000   0.0000000000
H          H       0.23786   0.82169   0.75000   0.0000000000
H          H       0.17304   0.75683   0.75000   0.0000000000
H          H       0.30955   0.85983   0.75000   0.0000000000
C          C       0.44418   0.47228   0.75000   0.0000000000
C          C       0.36449   0.45820   0.75000   0.0000000000
N          N       0.32488   0.45181   0.75000   0.0000000000
C          C       0.31963   0.48288   0.75000   0.0000000000
C          C       0.28013   0.48157   0.75000   0.0000000000
C          C       0.28023   0.51837   0.75000   0.0000000000
C          C       0.24346   0.51839   0.75000   0.0000000000
C          C       0.20676   0.48169   0.75000   0.0000000000
C          C       0.20667   0.44490   0.75000   0.0000000000
C          C       0.24344   0.44488   0.75000   0.0000000000
C          C       0.16725   0.48038   0.75000   0.0000000000
N          N       0.16202   0.51146   0.75000   0.0000000000
C          C       0.12239   0.50506   0.75000   0.0000000000
C          C       0.04270   0.49095   0.75000   0.0000000000
C          C       0.48592   0.47965   0.75000   0.0000000000
H          H       0.34755   0.51355   0.75000   0.0000000000
H          H       0.30858   0.54710   0.75000   0.0000000000
H          H       0.24372   0.54706   0.75000   0.0000000000
H          H       0.17831   0.41617   0.75000   0.0000000000
H          H       0.24317   0.41621   0.75000   0.0000000000
H          H       0.14017   0.44972   0.75000   0.0000000000
