data_crystal
 
_cell_length_a    46.67990
_cell_length_b    46.70010
_cell_length_c    6.80000
_cell_angle_alpha 90.00000
_cell_angle_beta  90.00000
_cell_angle_gamma 60.02690
 
_symmetry_space_group_name_Hall 'P 1'
_symmetry_space_group_name_H-M  'P 1'
 
loop_
_symmetry_equiv_pos_as_xyz
 'x,y,z' 
 
loop_
_atom_site_label
_atom_site_type_symbol
_atom_site_fract_x
_atom_site_fract_y
_atom_site_fract_z
_atom_site_charge
C          C       0.48772   0.53463   0.73701   0.0000000000
C          C       0.52248   0.51278   0.74064   0.0000000000
C          C       0.53385   0.47834   0.74044   0.0000000000
C          C       0.51225   0.46539   0.73679   0.0000000000
C          C       0.47749   0.48723   0.73303   0.0000000000
C          C       0.46613   0.52168   0.73328   0.0000000000
H          H       0.55867   0.46196   0.74301   0.0000000000
H          H       0.44131   0.53805   0.73062   0.0000000000
C          C       0.45416   0.47610   0.72903   0.0000000000
O          O       0.42368   0.49650   0.72979   0.0000000000
C          C       0.54582   0.52391   0.74433   0.0000000000
O          O       0.57627   0.50349   0.75096   0.0000000000
N          N       0.46239   0.44388   0.72493   0.0000000000
H          H       0.48610   0.42847   0.72486   0.0000000000
N          N       0.53763   0.55612   0.74189   0.0000000000
H          H       0.51393   0.57153   0.73715   0.0000000000
O          O       0.52475   0.43193   0.73698   0.0000000000
O          O       0.47524   0.56808   0.73720   0.0000000000
C          C       0.55557   0.37335   0.73763   0.0000000000
C          C       0.55805   0.40494   0.73904   0.0000000000
H          H       0.58018   0.35148   0.73928   0.0000000000
H          H       0.54249   0.37278   0.60589   0.0000000000
H          H       0.54190   0.37289   0.86670   0.0000000000
H          H       0.57153   0.40569   0.60892   0.0000000000
H          H       0.57097   0.40575   0.87169   0.0000000000
C          C       0.44439   0.62667   0.73500   0.0000000000
C          C       0.44194   0.59506   0.73302   0.0000000000
H          H       0.41977   0.64853   0.73171   0.0000000000
H          H       0.45832   0.62706   0.60698   0.0000000000
H          H       0.45719   0.62735   0.86774   0.0000000000
H          H       0.42928   0.59414   0.59940   0.0000000000
H          H       0.42822   0.59438   0.86208   0.0000000000
N          N       0.56117   0.56863   0.74251   0.0000000000
C          C       0.55374   0.59937   0.74021   0.0000000000
H          H       0.52852   0.61954   0.74187   0.0000000000
N          N       0.43889   0.43134   0.71757   0.0000000000
C          C       0.44636   0.40059   0.71358   0.0000000000
H          H       0.47157   0.38044   0.71972   0.0000000000
C          C       0.97808   0.48748   0.66565   0.0000000000
C          C       0.96523   0.52222   0.67034   0.0000000000
C          C       0.98831   0.53359   0.66314   0.0000000000
C          C       0.02279   0.51203   0.65169   0.0000000000
C          C       0.03565   0.47729   0.64686   0.0000000000
C          C       0.01257   0.46592   0.65412   0.0000000000
H          H       0.97991   0.55839   0.66626   0.0000000000
H          H       0.02098   0.44111   0.65090   0.0000000000
C          C       0.07004   0.45399   0.63521   0.0000000000
O          O       0.08010   0.42352   0.63537   0.0000000000
C          C       0.93083   0.54552   0.68168   0.0000000000
O          O       0.92087   0.57595   0.68889   0.0000000000
N          N       0.09401   0.46223   0.62409   0.0000000000
H          H       0.08572   0.48593   0.62460   0.0000000000
N          N       0.90680   0.53733   0.68629   0.0000000000
H          H       0.91503   0.51365   0.68095   0.0000000000
O          O       0.04374   0.52453   0.64537   0.0000000000
O          O       0.95712   0.47499   0.67235   0.0000000000
C          C       0.07152   0.55535   0.63641   0.0000000000
C          C       0.03748   0.55782   0.64682   0.0000000000
H          H       0.06881   0.57996   0.63709   0.0000000000
H          H       0.08428   0.54253   0.50201   0.0000000000
H          H       0.08649   0.54146   0.76252   0.0000000000
H          H       0.02241   0.57153   0.51970   0.0000000000
H          H       0.02465   0.57048   0.78216   0.0000000000
C          C       0.92936   0.44414   0.67974   0.0000000000
C          C       0.96339   0.44171   0.66878   0.0000000000
H          H       0.93208   0.41953   0.67743   0.0000000000
H          H       0.91422   0.45829   0.55473   0.0000000000
H          H       0.91678   0.45668   0.81512   0.0000000000
H          H       0.97606   0.42931   0.53250   0.0000000000
H          H       0.97862   0.42776   0.79482   0.0000000000
N          N       0.87079   0.56084   0.69497   0.0000000000
C          C       0.84747   0.55341   0.69946   0.0000000000
H          H       0.85252   0.52819   0.70151   0.0000000000
N          N       0.12996   0.43877   0.60867   0.0000000000
C          C       0.15320   0.44626   0.59789   0.0000000000
H          H       0.14821   0.47145   0.60364   0.0000000000
C          C       0.53503   0.97763   0.67963   0.0000000000
C          C       0.51318   0.96476   0.69110   0.0000000000
C          C       0.47872   0.98782   0.69158   0.0000000000
C          C       0.46576   0.02231   0.68122   0.0000000000
C          C       0.48761   0.03519   0.66963   0.0000000000
C          C       0.52207   0.01212   0.66920   0.0000000000
H          H       0.46234   0.97941   0.69969   0.0000000000
H          H       0.53844   0.02054   0.66100   0.0000000000
C          C       0.47647   0.06959   0.65858   0.0000000000
O          O       0.49688   0.07965   0.65255   0.0000000000
C          C       0.52432   0.93035   0.70184   0.0000000000
O          O       0.50390   0.92037   0.71524   0.0000000000
N          N       0.44423   0.09355   0.65447   0.0000000000
H          H       0.42882   0.08526   0.65972   0.0000000000
N          N       0.55654   0.90633   0.69942   0.0000000000
H          H       0.57195   0.91458   0.68937   0.0000000000
O          O       0.43230   0.04325   0.68246   0.0000000000
O          O       0.56850   0.95667   0.67878   0.0000000000
C          C       0.37369   0.07101   0.68736   0.0000000000
C          C       0.40530   0.03697   0.69162   0.0000000000
H          H       0.35181   0.06829   0.69412   0.0000000000
H          H       0.37288   0.08402   0.55217   0.0000000000
H          H       0.37347   0.08575   0.81262   0.0000000000
H          H       0.40580   0.02214   0.56529   0.0000000000
H          H       0.40635   0.02390   0.82769   0.0000000000
C          C       0.62710   0.92894   0.67231   0.0000000000
C          C       0.59548   0.96296   0.66751   0.0000000000
H          H       0.64896   0.93168   0.66392   0.0000000000
H          H       0.62725   0.91403   0.54819   0.0000000000
H          H       0.62803   0.91611   0.80844   0.0000000000
H          H       0.59431   0.97588   0.53053   0.0000000000
H          H       0.59504   0.97795   0.79273   0.0000000000
N          N       0.56906   0.87032   0.70724   0.0000000000
C          C       0.59980   0.84702   0.70506   0.0000000000
H          H       0.61998   0.85207   0.70134   0.0000000000
N          N       0.43166   0.12952   0.63994   0.0000000000
C          C       0.40090   0.15276   0.63583   0.0000000000
H          H       0.38075   0.14774   0.64736   0.0000000000
C          C       0.56426   0.64963   0.73289   0.0000000000
C          C       0.58531   0.66262   0.72813   0.0000000000
H          H       0.53779   0.66635   0.73514   0.0000000000
H          H       0.57477   0.68918   0.72679   0.0000000000
C          C       0.78670   0.56390   0.70778   0.0000000000
C          C       0.75266   0.58494   0.71073   0.0000000000
H          H       0.79643   0.53745   0.70924   0.0000000000
H          H       0.73664   0.57440   0.71442   0.0000000000
C          C       0.65006   0.78627   0.70406   0.0000000000
C          C       0.66305   0.75224   0.70586   0.0000000000
H          H       0.66680   0.79600   0.70034   0.0000000000
H          H       0.68962   0.73623   0.70352   0.0000000000
C          C       0.59138   0.79545   0.71220   0.0000000000
C          C       0.60370   0.76152   0.71410   0.0000000000
H          H       0.56487   0.81195   0.71448   0.0000000000
H          H       0.58652   0.75236   0.71782   0.0000000000
C          C       0.79590   0.61338   0.70076   0.0000000000
C          C       0.76196   0.63498   0.70362   0.0000000000
H          H       0.81241   0.62338   0.69705   0.0000000000
H          H       0.75280   0.66132   0.70209   0.0000000000
C          C       0.61374   0.59096   0.73177   0.0000000000
C          C       0.63535   0.60330   0.72700   0.0000000000
H          H       0.62374   0.56447   0.73320   0.0000000000
H          H       0.66170   0.58612   0.72481   0.0000000000
C          C       0.65418   0.70102   0.71303   0.0000000000
C          C       0.61400   0.80890   0.70714   0.0000000000
C          C       0.64045   0.73790   0.71101   0.0000000000
C          C       0.64540   0.65377   0.71974   0.0000000000
C          C       0.57767   0.61357   0.73486   0.0000000000
C          C       0.62225   0.64003   0.72491   0.0000000000
C          C       0.70144   0.64500   0.71196   0.0000000000
C          C       0.80935   0.57732   0.70272   0.0000000000
C          C       0.73832   0.62187   0.70880   0.0000000000
C          C       0.68838   0.67929   0.71013   0.0000000000
C          C       0.63295   0.68796   0.71783   0.0000000000
C          C       0.67969   0.63256   0.71676   0.0000000000
C          C       0.43597   0.35029   0.69730   0.0000000000
C          C       0.41499   0.33727   0.68520   0.0000000000
H          H       0.46241   0.33359   0.70478   0.0000000000
H          H       0.42556   0.31071   0.68353   0.0000000000
C          C       0.21386   0.43583   0.62160   0.0000000000
C          C       0.24786   0.41481   0.63133   0.0000000000
H          H       0.20410   0.46229   0.62360   0.0000000000
H          H       0.26383   0.42538   0.64070   0.0000000000
C          C       0.35063   0.21349   0.62840   0.0000000000
C          C       0.33761   0.24752   0.63077   0.0000000000
H          H       0.33395   0.20373   0.61892   0.0000000000
H          H       0.31107   0.26351   0.62308   0.0000000000
C          C       0.40920   0.20436   0.65151   0.0000000000
C          C       0.39683   0.23829   0.65414   0.0000000000
H          H       0.43568   0.18788   0.65907   0.0000000000
H          H       0.41397   0.24748   0.66369   0.0000000000
C          C       0.20478   0.38631   0.60606   0.0000000000
C          C       0.23868   0.36474   0.61562   0.0000000000
H          H       0.18832   0.37629   0.59662   0.0000000000
H          H       0.24787   0.33839   0.61340   0.0000000000
C          C       0.38648   0.40894   0.68972   0.0000000000
C          C       0.36495   0.39657   0.67753   0.0000000000
H          H       0.37645   0.43544   0.69161   0.0000000000
H          H       0.33862   0.41373   0.67021   0.0000000000
C          C       0.34635   0.29878   0.64657   0.0000000000
C          C       0.38666   0.19088   0.63863   0.0000000000
C          C       0.36013   0.26189   0.64385   0.0000000000
C          C       0.35502   0.34606   0.66141   0.0000000000
C          C       0.42252   0.38635   0.69996   0.0000000000
C          C       0.37809   0.35983   0.67458   0.0000000000
C          C       0.29909   0.35477   0.63933   0.0000000000
C          C       0.19129   0.42238   0.60871   0.0000000000
C          C       0.26224   0.37788   0.62887   0.0000000000
C          C       0.31219   0.32049   0.63694   0.0000000000
C          C       0.36751   0.31187   0.65877   0.0000000000
C          C       0.32077   0.36725   0.65160   0.0000000000
C          C       0.48772   0.53463   1.23701   0.0000000000
C          C       0.52248   0.51278   1.24064   0.0000000000
C          C       0.53385   0.47834   1.24044   0.0000000000
C          C       0.51225   0.46539   1.23679   0.0000000000
C          C       0.47749   0.48723   1.23303   0.0000000000
C          C       0.46613   0.52168   1.23328   0.0000000000
H          H       0.55867   0.46196   1.24301   0.0000000000
H          H       0.44131   0.53805   1.23062   0.0000000000
C          C       0.45416   0.47610   1.22903   0.0000000000
O          O       0.42368   0.49650   1.22979   0.0000000000
C          C       0.54582   0.52391   1.24433   0.0000000000
O          O       0.57627   0.50349   1.25096   0.0000000000
N          N       0.46239   0.44388   1.22493   0.0000000000
H          H       0.48610   0.42847   1.22486   0.0000000000
N          N       0.53763   0.55612   1.24190   0.0000000000
H          H       0.51393   0.57153   1.23715   0.0000000000
O          O       0.52475   0.43193   1.23697   0.0000000000
O          O       0.47524   0.56808   1.23720   0.0000000000
C          C       0.55557   0.37335   1.23763   0.0000000000
C          C       0.55805   0.40494   1.23904   0.0000000000
H          H       0.58018   0.35148   1.23928   0.0000000000
H          H       0.54249   0.37278   1.10589   0.0000000000
H          H       0.54190   0.37289   1.36670   0.0000000000
H          H       0.57153   0.40569   1.10892   0.0000000000
H          H       0.57097   0.40575   1.37169   0.0000000000
C          C       0.44439   0.62667   1.23500   0.0000000000
C          C       0.44194   0.59506   1.23302   0.0000000000
H          H       0.41977   0.64853   1.23171   0.0000000000
H          H       0.45832   0.62706   1.10698   0.0000000000
H          H       0.45719   0.62735   1.36774   0.0000000000
H          H       0.42928   0.59414   1.09940   0.0000000000
H          H       0.42822   0.59438   1.36209   0.0000000000
N          N       0.56117   0.56863   1.24251   0.0000000000
C          C       0.55374   0.59937   1.24021   0.0000000000
H          H       0.52852   0.61954   1.24187   0.0000000000
N          N       0.43889   0.43134   1.21758   0.0000000000
C          C       0.44636   0.40059   1.21358   0.0000000000
H          H       0.47157   0.38044   1.21972   0.0000000000
C          C       0.97808   0.48748   1.16565   0.0000000000
C          C       0.96523   0.52222   1.17034   0.0000000000
C          C       0.98831   0.53359   1.16314   0.0000000000
C          C       0.02279   0.51203   1.15169   0.0000000000
C          C       0.03565   0.47729   1.14686   0.0000000000
C          C       0.01257   0.46592   1.15412   0.0000000000
H          H       0.97991   0.55839   1.16626   0.0000000000
H          H       0.02098   0.44111   1.15090   0.0000000000
C          C       0.07004   0.45399   1.13521   0.0000000000
O          O       0.08010   0.42352   1.13537   0.0000000000
C          C       0.93083   0.54552   1.18169   0.0000000000
O          O       0.92087   0.57595   1.18889   0.0000000000
N          N       0.09401   0.46223   1.12409   0.0000000000
H          H       0.08572   0.48593   1.12461   0.0000000000
N          N       0.90680   0.53733   1.18629   0.0000000000
H          H       0.91503   0.51365   1.18095   0.0000000000
O          O       0.04374   0.52453   1.14537   0.0000000000
O          O       0.95712   0.47499   1.17235   0.0000000000
C          C       0.07152   0.55535   1.13641   0.0000000000
C          C       0.03748   0.55782   1.14681   0.0000000000
H          H       0.06881   0.57996   1.13709   0.0000000000
H          H       0.08428   0.54253   1.00201   0.0000000000
H          H       0.08649   0.54146   1.26252   0.0000000000
H          H       0.02241   0.57153   1.01970   0.0000000000
H          H       0.02465   0.57048   1.28216   0.0000000000
C          C       0.92936   0.44414   1.17975   0.0000000000
C          C       0.96339   0.44171   1.16878   0.0000000000
H          H       0.93208   0.41953   1.17743   0.0000000000
H          H       0.91422   0.45829   1.05473   0.0000000000
H          H       0.91678   0.45668   1.31512   0.0000000000
H          H       0.97606   0.42931   1.03250   0.0000000000
H          H       0.97862   0.42776   1.29482   0.0000000000
N          N       0.87079   0.56084   1.19497   0.0000000000
C          C       0.84747   0.55341   1.19946   0.0000000000
H          H       0.85252   0.52819   1.20151   0.0000000000
N          N       0.12996   0.43877   1.10867   0.0000000000
C          C       0.15320   0.44626   1.09789   0.0000000000
H          H       0.14821   0.47145   1.10364   0.0000000000
C          C       0.53503   0.97763   1.17963   0.0000000000
C          C       0.51318   0.96476   1.19110   0.0000000000
C          C       0.47872   0.98782   1.19158   0.0000000000
C          C       0.46576   0.02231   1.18122   0.0000000000
C          C       0.48761   0.03519   1.16963   0.0000000000
C          C       0.52207   0.01212   1.16920   0.0000000000
H          H       0.46234   0.97941   1.19969   0.0000000000
H          H       0.53844   0.02054   1.16100   0.0000000000
C          C       0.47647   0.06959   1.15858   0.0000000000
O          O       0.49688   0.07965   1.15255   0.0000000000
C          C       0.52432   0.93035   1.20184   0.0000000000
O          O       0.50390   0.92037   1.21524   0.0000000000
N          N       0.44423   0.09355   1.15447   0.0000000000
H          H       0.42882   0.08526   1.15972   0.0000000000
N          N       0.55654   0.90633   1.19942   0.0000000000
H          H       0.57195   0.91458   1.18937   0.0000000000
O          O       0.43230   0.04325   1.18246   0.0000000000
O          O       0.56850   0.95667   1.17878   0.0000000000
C          C       0.37369   0.07101   1.18736   0.0000000000
C          C       0.40530   0.03697   1.19162   0.0000000000
H          H       0.35181   0.06829   1.19412   0.0000000000
H          H       0.37288   0.08402   1.05217   0.0000000000
H          H       0.37347   0.08575   1.31262   0.0000000000
H          H       0.40580   0.02214   1.06529   0.0000000000
H          H       0.40635   0.02390   1.32769   0.0000000000
C          C       0.62710   0.92894   1.17231   0.0000000000
C          C       0.59548   0.96296   1.16751   0.0000000000
H          H       0.64896   0.93168   1.16393   0.0000000000
H          H       0.62725   0.91403   1.04819   0.0000000000
H          H       0.62803   0.91611   1.30844   0.0000000000
H          H       0.59431   0.97588   1.03053   0.0000000000
H          H       0.59504   0.97795   1.29273   0.0000000000
N          N       0.56906   0.87032   1.20724   0.0000000000
C          C       0.59980   0.84702   1.20506   0.0000000000
H          H       0.61998   0.85207   1.20134   0.0000000000
N          N       0.43166   0.12952   1.13993   0.0000000000
C          C       0.40090   0.15276   1.13583   0.0000000000
H          H       0.38075   0.14774   1.14735   0.0000000000
C          C       0.56426   0.64963   1.23289   0.0000000000
C          C       0.58531   0.66262   1.22813   0.0000000000
H          H       0.53779   0.66635   1.23514   0.0000000000
H          H       0.57477   0.68918   1.22679   0.0000000000
C          C       0.78670   0.56390   1.20778   0.0000000000
C          C       0.75266   0.58494   1.21073   0.0000000000
H          H       0.79643   0.53745   1.20924   0.0000000000
H          H       0.73664   0.57440   1.21442   0.0000000000
C          C       0.65006   0.78627   1.20406   0.0000000000
C          C       0.66305   0.75224   1.20586   0.0000000000
H          H       0.66680   0.79600   1.20034   0.0000000000
H          H       0.68962   0.73623   1.20352   0.0000000000
C          C       0.59138   0.79545   1.21220   0.0000000000
C          C       0.60370   0.76152   1.21410   0.0000000000
H          H       0.56487   0.81195   1.21448   0.0000000000
H          H       0.58652   0.75236   1.21782   0.0000000000
C          C       0.79590   0.61338   1.20076   0.0000000000
C          C       0.76196   0.63498   1.20362   0.0000000000
H          H       0.81241   0.62338   1.19704   0.0000000000
H          H       0.75280   0.66132   1.20209   0.0000000000
C          C       0.61374   0.59096   1.23177   0.0000000000
C          C       0.63535   0.60330   1.22700   0.0000000000
H          H       0.62374   0.56447   1.23320   0.0000000000
H          H       0.66170   0.58612   1.22481   0.0000000000
C          C       0.65418   0.70102   1.21303   0.0000000000
C          C       0.61400   0.80890   1.20714   0.0000000000
C          C       0.64045   0.73790   1.21101   0.0000000000
C          C       0.64540   0.65377   1.21974   0.0000000000
C          C       0.57767   0.61357   1.23486   0.0000000000
C          C       0.62225   0.64003   1.22491   0.0000000000
C          C       0.70144   0.64500   1.21196   0.0000000000
C          C       0.80935   0.57732   1.20272   0.0000000000
C          C       0.73832   0.62187   1.20880   0.0000000000
C          C       0.68838   0.67929   1.21013   0.0000000000
C          C       0.63295   0.68796   1.21782   0.0000000000
C          C       0.67969   0.63256   1.21676   0.0000000000
C          C       0.43597   0.35029   1.19730   0.0000000000
C          C       0.41499   0.33727   1.18520   0.0000000000
H          H       0.46241   0.33359   1.20478   0.0000000000
H          H       0.42556   0.31071   1.18352   0.0000000000
C          C       0.21386   0.43583   1.12160   0.0000000000
C          C       0.24786   0.41481   1.13133   0.0000000000
H          H       0.20410   0.46229   1.12360   0.0000000000
H          H       0.26383   0.42538   1.14070   0.0000000000
C          C       0.35063   0.21349   1.12840   0.0000000000
C          C       0.33761   0.24752   1.13077   0.0000000000
H          H       0.33395   0.20373   1.11892   0.0000000000
H          H       0.31107   0.26351   1.12308   0.0000000000
C          C       0.40920   0.20436   1.15152   0.0000000000
C          C       0.39683   0.23829   1.15414   0.0000000000
H          H       0.43568   0.18788   1.15907   0.0000000000
H          H       0.41397   0.24748   1.16369   0.0000000000
C          C       0.20478   0.38631   1.10606   0.0000000000
C          C       0.23868   0.36474   1.11562   0.0000000000
H          H       0.18832   0.37629   1.09662   0.0000000000
H          H       0.24787   0.33839   1.11340   0.0000000000
C          C       0.38648   0.40894   1.18972   0.0000000000
C          C       0.36495   0.39657   1.17753   0.0000000000
H          H       0.37645   0.43544   1.19161   0.0000000000
H          H       0.33862   0.41373   1.17021   0.0000000000
C          C       0.34635   0.29878   1.14657   0.0000000000
C          C       0.38666   0.19088   1.13863   0.0000000000
C          C       0.36013   0.26189   1.14386   0.0000000000
C          C       0.35502   0.34606   1.16141   0.0000000000
C          C       0.42252   0.38635   1.19996   0.0000000000
C          C       0.37809   0.35983   1.17458   0.0000000000
C          C       0.29909   0.35477   1.13933   0.0000000000
C          C       0.19129   0.42238   1.10871   0.0000000000
C          C       0.26224   0.37788   1.12887   0.0000000000
C          C       0.31219   0.32049   1.13694   0.0000000000
C          C       0.36751   0.31187   1.15877   0.0000000000
C          C       0.32077   0.36725   1.15160   0.0000000000
