data_crystal
 
_cell_length_a    46.67990
_cell_length_b    46.70010
_cell_length_c    3.40000
_cell_angle_alpha 90.00000
_cell_angle_beta  90.00000
_cell_angle_gamma 60.02690
 
_symmetry_space_group_name_Hall 'P 1'
_symmetry_space_group_name_H-M  'P 1'
 
loop_
_symmetry_equiv_pos_as_xyz
 'x,y,z' 
 
loop_
_atom_site_label
_atom_site_type_symbol
_atom_site_fract_x
_atom_site_fract_y
_atom_site_fract_z
_atom_site_charge
C          C       0.48772   0.53463   1.47403   0.0000000000
C          C       0.52248   0.51278   1.48128   0.0000000000
C          C       0.53385   0.47834   1.48088   0.0000000000
C          C       0.51225   0.46539   1.47358   0.0000000000
C          C       0.47749   0.48723   1.46605   0.0000000000
C          C       0.46613   0.52168   1.46656   0.0000000000
H          H       0.55867   0.46196   1.48602   0.0000000000
H          H       0.44131   0.53805   1.46124   0.0000000000
C          C       0.45416   0.47610   1.45806   0.0000000000
O          O       0.42368   0.49650   1.45958   0.0000000000
C          C       0.54582   0.52391   1.48867   0.0000000000
O          O       0.57627   0.50349   1.50192   0.0000000000
N          N       0.46239   0.44388   1.44986   0.0000000000
H          H       0.48610   0.42847   1.44972   0.0000000000
N          N       0.53763   0.55612   1.48379   0.0000000000
H          H       0.51393   0.57153   1.47430   0.0000000000
O          O       0.52475   0.43193   1.47395   0.0000000000
O          O       0.47524   0.56808   1.47441   0.0000000000
C          C       0.55557   0.37335   1.47526   0.0000000000
C          C       0.55805   0.40494   1.47808   0.0000000000
H          H       0.58018   0.35148   1.47857   0.0000000000
H          H       0.54249   0.37278   1.21179   0.0000000000
H          H       0.54190   0.37289   1.73341   0.0000000000
H          H       0.57153   0.40569   1.21784   0.0000000000
H          H       0.57097   0.40575   1.74338   0.0000000000
C          C       0.44439   0.62667   1.46999   0.0000000000
C          C       0.44194   0.59506   1.46604   0.0000000000
H          H       0.41977   0.64853   1.46342   0.0000000000
H          H       0.45832   0.62706   1.21396   0.0000000000
H          H       0.45719   0.62735   1.73547   0.0000000000
H          H       0.42928   0.59414   1.19881   0.0000000000
H          H       0.42822   0.59438   1.72417   0.0000000000
N          N       0.56117   0.56863   1.48502   0.0000000000
C          C       0.55374   0.59937   1.48041   0.0000000000
H          H       0.52852   0.61954   1.48375   0.0000000000
N          N       0.43889   0.43134   1.43515   0.0000000000
C          C       0.44636   0.40059   1.42716   0.0000000000
H          H       0.47157   0.38044   1.43945   0.0000000000
C          C       0.97808   0.48748   1.33130   0.0000000000
C          C       0.96523   0.52222   1.34068   0.0000000000
C          C       0.98831   0.53359   1.32627   0.0000000000
C          C       0.02279   0.51203   1.30338   0.0000000000
C          C       0.03565   0.47729   1.29372   0.0000000000
C          C       0.01257   0.46592   1.30823   0.0000000000
H          H       0.97991   0.55839   1.33251   0.0000000000
H          H       0.02098   0.44111   1.30181   0.0000000000
C          C       0.07004   0.45399   1.27042   0.0000000000
O          O       0.08010   0.42352   1.27074   0.0000000000
C          C       0.93083   0.54552   1.36337   0.0000000000
O          O       0.92087   0.57595   1.37778   0.0000000000
N          N       0.09401   0.46223   1.24817   0.0000000000
H          H       0.08572   0.48593   1.24921   0.0000000000
N          N       0.90680   0.53733   1.37257   0.0000000000
H          H       0.91503   0.51365   1.36191   0.0000000000
O          O       0.04374   0.52453   1.29074   0.0000000000
O          O       0.95712   0.47499   1.34470   0.0000000000
C          C       0.07152   0.55535   1.27282   0.0000000000
C          C       0.03748   0.55782   1.29363   0.0000000000
H          H       0.06881   0.57996   1.27419   0.0000000000
H          H       0.08428   0.54253   1.00402   0.0000000000
H          H       0.08649   0.54146   1.52504   0.0000000000
H          H       0.02241   0.57153   1.03940   0.0000000000
H          H       0.02465   0.57048   1.56431   0.0000000000
C          C       0.92936   0.44414   1.35949   0.0000000000
C          C       0.96339   0.44171   1.33756   0.0000000000
H          H       0.93208   0.41953   1.35486   0.0000000000
H          H       0.91422   0.45829   1.10945   0.0000000000
H          H       0.91678   0.45668   1.63024   0.0000000000
H          H       0.97606   0.42931   1.06500   0.0000000000
H          H       0.97862   0.42776   1.58963   0.0000000000
N          N       0.87079   0.56084   1.38994   0.0000000000
C          C       0.84747   0.55341   1.39891   0.0000000000
H          H       0.85252   0.52819   1.40302   0.0000000000
N          N       0.12996   0.43877   1.21733   0.0000000000
C          C       0.15320   0.44626   1.19578   0.0000000000
H          H       0.14821   0.47145   1.20728   0.0000000000
C          C       0.53503   0.97763   1.35927   0.0000000000
C          C       0.51318   0.96476   1.38220   0.0000000000
C          C       0.47872   0.98782   1.38315   0.0000000000
C          C       0.46576   0.02231   1.36245   0.0000000000
C          C       0.48761   0.03519   1.33925   0.0000000000
C          C       0.52207   0.01212   1.33840   0.0000000000
H          H       0.46234   0.97941   1.39939   0.0000000000
H          H       0.53844   0.02054   1.32199   0.0000000000
C          C       0.47647   0.06959   1.31716   0.0000000000
O          O       0.49688   0.07965   1.30510   0.0000000000
C          C       0.52432   0.93035   1.40368   0.0000000000
O          O       0.50390   0.92037   1.43048   0.0000000000
N          N       0.44423   0.09355   1.30894   0.0000000000
H          H       0.42882   0.08526   1.31943   0.0000000000
N          N       0.55654   0.90633   1.39885   0.0000000000
H          H       0.57195   0.91458   1.37874   0.0000000000
O          O       0.43230   0.04325   1.36493   0.0000000000
O          O       0.56850   0.95667   1.35756   0.0000000000
C          C       0.37369   0.07101   1.37472   0.0000000000
C          C       0.40530   0.03697   1.38324   0.0000000000
H          H       0.35181   0.06829   1.38825   0.0000000000
H          H       0.37288   0.08402   1.10434   0.0000000000
H          H       0.37347   0.08575   1.62524   0.0000000000
H          H       0.40580   0.02214   1.13057   0.0000000000
H          H       0.40635   0.02390   1.65538   0.0000000000
C          C       0.62710   0.92894   1.34463   0.0000000000
C          C       0.59548   0.96296   1.33501   0.0000000000
H          H       0.64896   0.93168   1.32785   0.0000000000
H          H       0.62725   0.91403   1.09637   0.0000000000
H          H       0.62803   0.91611   1.61688   0.0000000000
H          H       0.59431   0.97588   1.06106   0.0000000000
H          H       0.59504   0.97795   1.58545   0.0000000000
N          N       0.56906   0.87032   1.41448   0.0000000000
C          C       0.59980   0.84702   1.41012   0.0000000000
H          H       0.61998   0.85207   1.40267   0.0000000000
N          N       0.43166   0.12952   1.27987   0.0000000000
C          C       0.40090   0.15276   1.27166   0.0000000000
H          H       0.38075   0.14774   1.29471   0.0000000000
C          C       0.56426   0.64963   1.46578   0.0000000000
C          C       0.58531   0.66262   1.45627   0.0000000000
H          H       0.53779   0.66635   1.47028   0.0000000000
H          H       0.57477   0.68918   1.45357   0.0000000000
C          C       0.78670   0.56390   1.41555   0.0000000000
C          C       0.75266   0.58494   1.42145   0.0000000000
H          H       0.79643   0.53745   1.41848   0.0000000000
H          H       0.73664   0.57440   1.42884   0.0000000000
C          C       0.65006   0.78627   1.40811   0.0000000000
C          C       0.66305   0.75224   1.41173   0.0000000000
H          H       0.66680   0.79600   1.40068   0.0000000000
H          H       0.68962   0.73623   1.40703   0.0000000000
C          C       0.59138   0.79545   1.42439   0.0000000000
C          C       0.60370   0.76152   1.42819   0.0000000000
H          H       0.56487   0.81195   1.42896   0.0000000000
H          H       0.58652   0.75236   1.43564   0.0000000000
C          C       0.79590   0.61338   1.40151   0.0000000000
C          C       0.76196   0.63498   1.40725   0.0000000000
H          H       0.81241   0.62338   1.39409   0.0000000000
H          H       0.75280   0.66132   1.40417   0.0000000000
C          C       0.61374   0.59096   1.46354   0.0000000000
C          C       0.63535   0.60330   1.45400   0.0000000000
H          H       0.62374   0.56447   1.46639   0.0000000000
H          H       0.66170   0.58612   1.44963   0.0000000000
C          C       0.65418   0.70102   1.42606   0.0000000000
C          C       0.61400   0.80890   1.41428   0.0000000000
C          C       0.64045   0.73790   1.42203   0.0000000000
C          C       0.64540   0.65377   1.43947   0.0000000000
C          C       0.57767   0.61357   1.46972   0.0000000000
C          C       0.62225   0.64003   1.44981   0.0000000000
C          C       0.70144   0.64500   1.42392   0.0000000000
C          C       0.80935   0.57732   1.40544   0.0000000000
C          C       0.73832   0.62187   1.41760   0.0000000000
N          N       0.68838   0.67929   1.42027   0.0000000000
N          N       0.63295   0.68796   1.43565   0.0000000000
N          N       0.67969   0.63256   1.43353   0.0000000000
C          C       0.43597   0.35029   1.39460   0.0000000000
C          C       0.41499   0.33727   1.37040   0.0000000000
H          H       0.46241   0.33359   1.40956   0.0000000000
H          H       0.42556   0.31071   1.36705   0.0000000000
C          C       0.21386   0.43583   1.24320   0.0000000000
C          C       0.24786   0.41481   1.26266   0.0000000000
H          H       0.20410   0.46229   1.24720   0.0000000000
H          H       0.26383   0.42538   1.28139   0.0000000000
C          C       0.35063   0.21349   1.25680   0.0000000000
C          C       0.33761   0.24752   1.26154   0.0000000000
H          H       0.33395   0.20373   1.23784   0.0000000000
H          H       0.31107   0.26351   1.24616   0.0000000000
C          C       0.40920   0.20436   1.30303   0.0000000000
C          C       0.39683   0.23829   1.30829   0.0000000000
H          H       0.43568   0.18788   1.31814   0.0000000000
H          H       0.41397   0.24748   1.32738   0.0000000000
C          C       0.20478   0.38631   1.21213   0.0000000000
C          C       0.23868   0.36474   1.23124   0.0000000000
H          H       0.18832   0.37629   1.19323   0.0000000000
H          H       0.24787   0.33839   1.22681   0.0000000000
C          C       0.38648   0.40894   1.37944   0.0000000000
C          C       0.36495   0.39657   1.35507   0.0000000000
H          H       0.37645   0.43544   1.38323   0.0000000000
H          H       0.33862   0.41373   1.34042   0.0000000000
C          C       0.34635   0.29878   1.29314   0.0000000000
C          C       0.38666   0.19088   1.27726   0.0000000000
C          C       0.36013   0.26189   1.28771   0.0000000000
C          C       0.35502   0.34606   1.32281   0.0000000000
C          C       0.42252   0.38635   1.39992   0.0000000000
C          C       0.37809   0.35983   1.34916   0.0000000000
C          C       0.29909   0.35477   1.27866   0.0000000000
C          C       0.19129   0.42238   1.21742   0.0000000000
C          C       0.26224   0.37788   1.25773   0.0000000000
N          N       0.31219   0.32049   1.27387   0.0000000000
N          N       0.36751   0.31187   1.31753   0.0000000000
N          N       0.32077   0.36725   1.30321   0.0000000000
