data_crystal
 
_cell_length_a    16.23170
_cell_length_b    16.23170
_cell_length_c    16.25210
_cell_angle_alpha 90.00000
_cell_angle_beta  90.00000
_cell_angle_gamma 90.00000
 
_symmetry_space_group_name_Hall 'P 1'
_symmetry_space_group_name_H-M  'P 1'
 
loop_
_symmetry_equiv_pos_as_xyz
 'x,y,z' 
 
loop_
_atom_site_label
_atom_site_type_symbol
_atom_site_fract_x
_atom_site_fract_y
_atom_site_fract_z
C          C       0.34635   0.61037   0.34230 
C          C       0.65365   0.38963   0.34230 
C          C       0.61037   0.65365   0.65770 
C          C       0.38963   0.34635   0.65770 
H          H       0.31158   0.55891   0.35324 
H          H       0.68842   0.44109   0.35324 
H          H       0.55891   0.68842   0.64676 
H          H       0.44109   0.31158   0.64676 
C          C       0.83933   0.33764   0.10657 
C          C       0.16067   0.66236   0.10657 
C          C       0.33764   0.16067   0.89343 
C          C       0.66236   0.83933   0.89343 
H          H       0.84921   0.30563   0.05315 
H          H       0.15079   0.69437   0.05315 
H          H       0.30563   0.15079   0.94685 
H          H       0.69437   0.84921   0.94685 
C          C       0.84440   0.59891   0.84566 
C          C       0.15560   0.40109   0.84566 
C          C       0.59891   0.15560   0.15434 
C          C       0.40109   0.84440   0.15434 
N          N       0.89258   0.61308   0.91239 
N          N       0.10742   0.38692   0.91239 
N          N       0.61308   0.10742   0.08761 
N          N       0.38692   0.89258   0.08761 
H          H       0.85369   0.54518   0.81391 
H          H       0.14631   0.45482   0.81391 
H          H       0.54518   0.14631   0.18609 
H          H       0.45482   0.85369   0.18609 
H          H       0.88480   0.66679   0.93780 
H          H       0.11520   0.33321   0.93780 
H          H       0.66679   0.11520   0.06220 
H          H       0.33321   0.88480   0.06220 
N          N       0.62118   0.58565   0.61030 
N          N       0.37882   0.41435   0.61030 
N          N       0.58565   0.37882   0.38970 
N          N       0.41435   0.62118   0.38970 
H          H       0.67265   0.55615   0.61947 
H          H       0.32735   0.44385   0.61947 
H          H       0.55615   0.32735   0.38053 
H          H       0.44385   0.67265   0.38053 
N          N       0.59626   0.88826   0.87853 
N          N       0.40374   0.11174   0.87853 
N          N       0.88826   0.40374   0.12147 
N          N       0.11174   0.59626   0.12147 
H          H       0.57061   0.88006   0.82506 
H          H       0.42939   0.11994   0.82506 
H          H       0.88006   0.42939   0.17494 
H          H       0.11994   0.57061   0.17494 
C          C       0.60966   0.48548   0.50078 
C          C       0.39034   0.51452   0.50078 
C          C       0.48548   0.39034   0.49922 
C          C       0.51452   0.60966   0.49922 
C          C       0.00246   0.61069   0.01109 
C          C       0.99754   0.38931   0.01109 
C          C       0.61069   0.99754   0.98891 
C          C       0.38931   0.00246   0.98891 
C          C       0.50000   0.00000   0.10017 
C          C       0.00000   0.50000   0.89983 
C          C       0.50000   0.00000   0.87901 
C          C       0.00000   0.50000   0.12099 
C          C       0.54827   0.43759   0.44371 
C          C       0.45173   0.56241   0.44371 
C          C       0.43759   0.45173   0.55629 
C          C       0.56241   0.54827   0.55629 
C          C       0.94514   0.55704   0.95516 
C          C       0.05486   0.44296   0.95516 
C          C       0.55704   0.05486   0.04484 
C          C       0.44296   0.94514   0.04484 
C          C       0.94254   0.44556   0.06652 
C          C       0.05746   0.55444   0.06652 
C          C       0.44556   0.05746   0.93348 
C          C       0.55444   0.94254   0.93348 
H          H       0.51955   0.34529   0.53561 
H          H       0.48045   0.65471   0.53561 
H          H       0.34529   0.48045   0.46439 
H          H       0.65471   0.51955   0.46439 
H          H       0.44145   0.35602   0.46161 
H          H       0.55855   0.64398   0.46161 
H          H       0.35602   0.55855   0.53839 
H          H       0.64398   0.44145   0.53839 
H          H       0.03790   0.53869   0.86012 
H          H       0.96210   0.46131   0.86012 
H          H       0.53869   0.96210   0.13988 
H          H       0.46131   0.03790   0.13988 
H          H       0.03668   0.46021   0.16118 
H          H       0.96332   0.53979   0.16118 
H          H       0.46021   0.96332   0.83882 
H          H       0.53979   0.03668   0.83882 
H          H       0.35029   0.04066   0.02814 
H          H       0.64971   0.95934   0.02814 
H          H       0.04066   0.64971   0.97186 
H          H       0.95934   0.35029   0.97186 
H          H       0.65162   0.03390   0.94973 
H          H       0.34838   0.96610   0.94973 
H          H       0.03390   0.34838   0.05027 
H          H       0.96610   0.65162   0.05027 
H          H       0.54276   0.53313   0.34923 
H          H       0.45724   0.46687   0.34923 
H          H       0.53313   0.45724   0.65077 
H          H       0.46687   0.54276   0.65077 
H          H       0.85029   0.54209   0.04954 
H          H       0.14971   0.45791   0.04954 
H          H       0.54209   0.14971   0.95046 
H          H       0.45791   0.85029   0.95046 
H          H       0.84803   0.46559   0.97311 
H          H       0.15197   0.53441   0.97311 
H          H       0.46559   0.15197   0.02689 
H          H       0.53441   0.84803   0.02689 
C          C       0.75647   0.72453   0.86364 
C          C       0.24353   0.27547   0.86364 
C          C       0.72453   0.24353   0.13636 
C          C       0.27547   0.75647   0.13636 
C          C       0.36874   0.73250   0.25082 
C          C       0.63126   0.26750   0.25082 
C          C       0.73250   0.63126   0.74918 
C          C       0.26750   0.36874   0.74918 
C          C       0.35701   0.25065   0.76977 
C          C       0.64299   0.74935   0.76977 
C          C       0.25065   0.64299   0.23023 
C          C       0.74935   0.35701   0.23023 
C          C       0.77972   0.65232   0.81973 
C          C       0.22028   0.34768   0.81973 
C          C       0.65232   0.22028   0.18027 
C          C       0.34768   0.77972   0.18027 
C          C       0.22696   0.68714   0.15852 
C          C       0.77304   0.31286   0.15852 
C          C       0.68714   0.77304   0.84148 
C          C       0.31286   0.22696   0.84148 
C          C       0.67773   0.33713   0.27635 
C          C       0.32227   0.66287   0.27635 
C          C       0.33713   0.32227   0.72365 
C          C       0.66287   0.67773   0.72365 
O          O       0.79662   0.74656   0.92601 
O          O       0.20338   0.25344   0.92601 
O          O       0.74656   0.20338   0.07399 
O          O       0.25344   0.79662   0.07399 
O          O       0.43214   0.75289   0.29031 
O          O       0.56786   0.24711   0.29031 
O          O       0.75289   0.56786   0.70969 
O          O       0.24711   0.43214   0.70969 
O          O       0.41761   0.20862   0.74615 
O          O       0.58239   0.79138   0.74615 
O          O       0.20862   0.58239   0.25385 
O          O       0.79138   0.41761   0.25385 
C          C       0.88920   0.50279   0.01111 
C          C       0.11080   0.49721   0.01111 
C          C       0.50279   0.11080   0.98889 
C          C       0.49721   0.88920   0.98889 
C          C       0.50000   0.50000   0.38925 
C          C       0.50000   0.50000   0.61075 
