data_crystal
 
_cell_length_a    25.60270
_cell_length_b    24.36410
_cell_length_c    11.20000
_cell_angle_alpha 90.00000
_cell_angle_beta  90.00000
_cell_angle_gamma 61.58780
 
_symmetry_space_group_name_Hall 'P 1'
_symmetry_space_group_name_H-M  'P 1'
 
loop_
_symmetry_equiv_pos_as_xyz
 'x,y,z' 
 
loop_
_atom_site_label
_atom_site_type_symbol
_atom_site_fract_x
_atom_site_fract_y
_atom_site_fract_z
_atom_site_charge
C          C       0.35697   0.47258   0.44504   0.0000000000
N          N       0.37122   0.52599   0.44426   0.0000000000
C          C       0.43503   0.51298   0.44516   0.0000000000
C          C       0.44918   0.56772   0.44620   0.0000000000
C          C       0.51420   0.55472   0.44777   0.0000000000
H          H       0.39445   0.42241   0.44589   0.0000000000
H          H       0.41164   0.61767   0.44589   0.0000000000
H          H       0.52475   0.59527   0.44873   0.0000000000
C          C       0.64305   0.52742   0.44767   0.0000000000
N          N       0.62877   0.47402   0.44820   0.0000000000
C          C       0.56496   0.48702   0.44777   0.0000000000
C          C       0.55082   0.43226   0.44683   0.0000000000
C          C       0.48579   0.44527   0.44536   0.0000000000
H          H       0.60561   0.57761   0.44740   0.0000000000
H          H       0.58835   0.38232   0.44700   0.0000000000
H          H       0.47524   0.40473   0.44439   0.0000000000
C          C       0.35697   0.17046   0.44767   0.0000000000
N          N       0.37122   0.10281   0.44845   0.0000000000
C          C       0.43503   0.05201   0.44754   0.0000000000
C          C       0.44918   0.98312   0.44651   0.0000000000
C          C       0.51420   0.93109   0.44494   0.0000000000
H          H       0.39445   0.18316   0.44682   0.0000000000
H          H       0.41164   0.97071   0.44682   0.0000000000
H          H       0.52475   0.88000   0.44398   0.0000000000
C          C       0.64305   0.82954   0.44504   0.0000000000
N          N       0.62877   0.89722   0.44451   0.0000000000
C          C       0.56496   0.94804   0.44494   0.0000000000
C          C       0.55082   0.01694   0.44588   0.0000000000
C          C       0.48579   0.06896   0.44735   0.0000000000
H          H       0.60561   0.81680   0.44532   0.0000000000
H          H       0.58835   0.02934   0.44571   0.0000000000
H          H       0.47524   0.12005   0.44832   0.0000000000
S          S       0.07122   0.40489   0.44688   0.0000000000
C          C       0.03007   0.48497   0.44635   0.0000000000
C          C       0.96996   0.51503   0.44636   0.0000000000
S          S       0.92881   0.47609   0.44688   0.0000000000
S          S       0.92881   0.59512   0.44584   0.0000000000
S          S       0.07122   0.52391   0.44584   0.0000000000
C          C       0.13793   0.40380   0.44660   0.0000000000
C          C       0.13793   0.45828   0.44612   0.0000000000
C          C       0.86209   0.54172   0.44660   0.0000000000
C          C       0.86209   0.59620   0.44612   0.0000000000
C          C       0.19602   0.34140   0.44688   0.0000000000
C          C       0.20903   0.29811   0.35398   0.0000000000
C          C       0.26194   0.24161   0.35538   0.0000000000
C          C       0.30239   0.22777   0.44953   0.0000000000
C          C       0.28943   0.27095   0.54232   0.0000000000
C          C       0.23654   0.32746   0.54102   0.0000000000
H          H       0.17834   0.30798   0.28051   0.0000000000
H          H       0.27142   0.20866   0.28316   0.0000000000
H          H       0.32029   0.26084   0.61557   0.0000000000
H          H       0.22714   0.36037   0.61333   0.0000000000
C          C       0.80401   0.53740   0.44688   0.0000000000
C          C       0.79100   0.50747   0.54043   0.0000000000
C          C       0.73808   0.50388   0.53955   0.0000000000
C          C       0.69764   0.53013   0.44529   0.0000000000
C          C       0.71059   0.56002   0.35186   0.0000000000
C          C       0.76349   0.56364   0.35265   0.0000000000
H          H       0.82169   0.48691   0.61399   0.0000000000
H          H       0.72861   0.48066   0.61226   0.0000000000
H          H       0.67974   0.58049   0.27853   0.0000000000
H          H       0.77289   0.58688   0.27985   0.0000000000
C          C       0.80401   0.65861   0.44583   0.0000000000
C          C       0.79100   0.70155   0.35229   0.0000000000
C          C       0.73808   0.75805   0.35316   0.0000000000
C          C       0.69764   0.77225   0.44742   0.0000000000
C          C       0.71059   0.72940   0.54085   0.0000000000
C          C       0.76349   0.67289   0.54007   0.0000000000
H          H       0.82169   0.69141   0.27872   0.0000000000
H          H       0.72861   0.79074   0.28046   0.0000000000
H          H       0.67974   0.73978   0.61419   0.0000000000
H          H       0.77289   0.64025   0.61287   0.0000000000
C          C       0.19602   0.46261   0.44583   0.0000000000
C          C       0.20903   0.49288   0.53873   0.0000000000
C          C       0.26194   0.49646   0.53734   0.0000000000
C          C       0.30239   0.46986   0.44318   0.0000000000
C          C       0.28943   0.43963   0.35039   0.0000000000
C          C       0.23654   0.43602   0.35170   0.0000000000
H          H       0.17834   0.51370   0.61220   0.0000000000
H          H       0.27142   0.51994   0.60955   0.0000000000
H          H       0.32029   0.41889   0.27714   0.0000000000
H          H       0.22714   0.41251   0.27938   0.0000000000
C          C       0.35697   0.47258   0.94504   0.0000000000
N          N       0.37122   0.52599   0.94426   0.0000000000
C          C       0.43503   0.51298   0.94516   0.0000000000
C          C       0.44918   0.56772   0.94620   0.0000000000
C          C       0.51420   0.55472   0.94777   0.0000000000
H          H       0.39445   0.42241   0.94589   0.0000000000
H          H       0.41164   0.61767   0.94589   0.0000000000
H          H       0.52475   0.59527   0.94873   0.0000000000
C          C       0.64305   0.52742   0.94767   0.0000000000
N          N       0.62877   0.47402   0.94820   0.0000000000
C          C       0.56496   0.48702   0.94777   0.0000000000
C          C       0.55082   0.43226   0.94683   0.0000000000
C          C       0.48579   0.44527   0.94536   0.0000000000
H          H       0.60561   0.57761   0.94740   0.0000000000
H          H       0.58835   0.38232   0.94700   0.0000000000
H          H       0.47524   0.40473   0.94439   0.0000000000
C          C       0.35697   0.17046   0.94767   0.0000000000
N          N       0.37122   0.10281   0.94845   0.0000000000
C          C       0.43503   0.05201   0.94754   0.0000000000
C          C       0.44918   0.98312   0.94651   0.0000000000
C          C       0.51420   0.93109   0.94494   0.0000000000
H          H       0.39445   0.18316   0.94683   0.0000000000
H          H       0.41164   0.97071   0.94681   0.0000000000
H          H       0.52475   0.88000   0.94398   0.0000000000
C          C       0.64305   0.82954   0.94504   0.0000000000
N          N       0.62877   0.89722   0.94451   0.0000000000
C          C       0.56496   0.94804   0.94494   0.0000000000
C          C       0.55082   0.01694   0.94588   0.0000000000
C          C       0.48579   0.06896   0.94735   0.0000000000
H          H       0.60561   0.81680   0.94531   0.0000000000
H          H       0.58835   0.02934   0.94571   0.0000000000
H          H       0.47524   0.12005   0.94832   0.0000000000
S          S       0.07122   0.40489   0.94688   0.0000000000
C          C       0.03007   0.48497   0.94636   0.0000000000
C          C       0.96996   0.51503   0.94636   0.0000000000
S          S       0.92881   0.47609   0.94688   0.0000000000
S          S       0.92881   0.59512   0.94584   0.0000000000
S          S       0.07122   0.52391   0.94584   0.0000000000
C          C       0.13793   0.40380   0.94659   0.0000000000
C          C       0.13793   0.45828   0.94612   0.0000000000
C          C       0.86209   0.54172   0.94659   0.0000000000
C          C       0.86209   0.59620   0.94612   0.0000000000
C          C       0.19602   0.34140   0.94688   0.0000000000
C          C       0.20903   0.29811   0.85398   0.0000000000
C          C       0.26194   0.24161   0.85538   0.0000000000
C          C       0.30239   0.22777   0.94952   0.0000000000
C          C       0.28943   0.27095   1.04232   0.0000000000
C          C       0.23654   0.32746   1.04102   0.0000000000
H          H       0.17834   0.30798   0.78050   0.0000000000
H          H       0.27142   0.20866   0.78316   0.0000000000
H          H       0.32029   0.26084   1.11557   0.0000000000
H          H       0.22714   0.36037   1.11333   0.0000000000
C          C       0.80401   0.53740   0.94688   0.0000000000
C          C       0.79100   0.50747   1.04043   0.0000000000
C          C       0.73808   0.50388   1.03955   0.0000000000
C          C       0.69764   0.53013   0.94529   0.0000000000
C          C       0.71059   0.56002   0.85186   0.0000000000
C          C       0.76349   0.56364   0.85265   0.0000000000
H          H       0.82169   0.48691   1.11400   0.0000000000
H          H       0.72861   0.48066   1.11226   0.0000000000
H          H       0.67974   0.58049   0.77853   0.0000000000
H          H       0.77289   0.58688   0.77985   0.0000000000
C          C       0.80401   0.65861   0.94583   0.0000000000
C          C       0.79100   0.70155   0.85229   0.0000000000
C          C       0.73808   0.75805   0.85316   0.0000000000
C          C       0.69764   0.77225   0.94742   0.0000000000
C          C       0.71059   0.72940   1.04085   0.0000000000
C          C       0.76349   0.67289   1.04006   0.0000000000
H          H       0.82169   0.69141   0.77872   0.0000000000
H          H       0.72861   0.79074   0.78045   0.0000000000
H          H       0.67974   0.73978   1.11419   0.0000000000
H          H       0.77289   0.64025   1.11287   0.0000000000
C          C       0.19602   0.46261   0.94583   0.0000000000
C          C       0.20903   0.49288   1.03873   0.0000000000
C          C       0.26194   0.49646   1.03733   0.0000000000
C          C       0.30239   0.46986   0.94319   0.0000000000
C          C       0.28943   0.43963   0.85039   0.0000000000
C          C       0.23654   0.43602   0.85170   0.0000000000
H          H       0.17834   0.51370   1.11220   0.0000000000
H          H       0.27142   0.51994   1.10955   0.0000000000
H          H       0.32029   0.41889   0.77714   0.0000000000
H          H       0.22714   0.41251   0.77938   0.0000000000
