data_crystal
 
_cell_length_a    35.59540
_cell_length_b    33.24730
_cell_length_c    7.41460
_cell_angle_alpha 90.00000
_cell_angle_beta  90.00000
_cell_angle_gamma 90.00000
 
_symmetry_space_group_name_Hall 'P 1'
_symmetry_space_group_name_H-M  'P 1'
 
loop_
_symmetry_equiv_pos_as_xyz
 'x,y,z' 
 
loop_
_atom_site_label
_atom_site_type_symbol
_atom_site_fract_x
_atom_site_fract_y
_atom_site_fract_z
_atom_site_charge
C          C       0.03978   0.46291   0.46727   0.0000000000
C          C       0.53978   0.96291   0.46727   0.0000000000
C          C       0.96022   0.46291   0.53273   0.0000000000
C          C       0.46022   0.96291   0.53273   0.0000000000
C          C       0.96022   0.53709   0.53273   0.0000000000
C          C       0.46022   0.03709   0.53273   0.0000000000
C          C       0.03978   0.53709   0.46727   0.0000000000
C          C       0.53978   0.03709   0.46727   0.0000000000
C          C       0.98081   0.42672   0.51925   0.0000000000
C          C       0.48081   0.92672   0.51925   0.0000000000
C          C       0.01919   0.42672   0.48075   0.0000000000
C          C       0.51919   0.92672   0.48075   0.0000000000
C          C       0.01919   0.57328   0.48075   0.0000000000
C          C       0.51919   0.07328   0.48075   0.0000000000
C          C       0.98081   0.57328   0.51925   0.0000000000
C          C       0.48081   0.07328   0.51925   0.0000000000
C          C       0.92085   0.46282   0.56713   0.0000000000
C          C       0.42085   0.96282   0.56713   0.0000000000
C          C       0.07915   0.46282   0.43287   0.0000000000
C          C       0.57915   0.96282   0.43287   0.0000000000
C          C       0.07915   0.53718   0.43287   0.0000000000
C          C       0.57915   0.03718   0.43287   0.0000000000
C          C       0.92085   0.53718   0.56713   0.0000000000
C          C       0.42085   0.03718   0.56713   0.0000000000
C          C       0.89764   0.42813   0.56367   0.0000000000
C          C       0.39764   0.92813   0.56367   0.0000000000
C          C       0.10236   0.42813   0.43633   0.0000000000
C          C       0.60236   0.92813   0.43633   0.0000000000
C          C       0.10236   0.57187   0.43633   0.0000000000
C          C       0.60236   0.07187   0.43633   0.0000000000
C          C       0.89764   0.57187   0.56367   0.0000000000
C          C       0.39764   0.07187   0.56367   0.0000000000
C          C       0.87097   0.42064   0.70149   0.0000000000
C          C       0.37097   0.92064   0.70149   0.0000000000
C          C       0.12903   0.42064   0.29851   0.0000000000
C          C       0.62903   0.92064   0.29851   0.0000000000
C          C       0.12903   0.57936   0.29851   0.0000000000
C          C       0.62903   0.07936   0.29851   0.0000000000
C          C       0.87097   0.57936   0.70149   0.0000000000
C          C       0.37097   0.07936   0.70149   0.0000000000
C          C       0.84627   0.38772   0.69086   0.0000000000
C          C       0.34627   0.88772   0.69086   0.0000000000
C          C       0.15373   0.38772   0.30914   0.0000000000
C          C       0.65373   0.88772   0.30914   0.0000000000
C          C       0.15373   0.61228   0.30914   0.0000000000
C          C       0.65373   0.11228   0.30914   0.0000000000
C          C       0.84627   0.61228   0.69086   0.0000000000
C          C       0.34627   0.11228   0.69086   0.0000000000
C          C       0.84750   0.36160   0.54087   0.0000000000
C          C       0.34750   0.86160   0.54087   0.0000000000
C          C       0.15250   0.36160   0.45913   0.0000000000
C          C       0.65250   0.86160   0.45913   0.0000000000
C          C       0.15250   0.63840   0.45913   0.0000000000
C          C       0.65250   0.13840   0.45913   0.0000000000
C          C       0.84750   0.63840   0.54087   0.0000000000
C          C       0.34750   0.13840   0.54087   0.0000000000
C          C       0.87427   0.36838   0.40477   0.0000000000
C          C       0.37427   0.86838   0.40477   0.0000000000
C          C       0.12573   0.36838   0.59523   0.0000000000
C          C       0.62573   0.86838   0.59523   0.0000000000
C          C       0.12573   0.63162   0.59523   0.0000000000
C          C       0.62573   0.13162   0.59523   0.0000000000
C          C       0.87427   0.63162   0.40477   0.0000000000
C          C       0.37427   0.13162   0.40477   0.0000000000
C          C       0.89893   0.40129   0.41543   0.0000000000
C          C       0.39893   0.90129   0.41543   0.0000000000
C          C       0.10107   0.40129   0.58457   0.0000000000
C          C       0.60107   0.90129   0.58457   0.0000000000
C          C       0.10107   0.59871   0.58457   0.0000000000
C          C       0.60107   0.09871   0.58457   0.0000000000
C          C       0.89893   0.59871   0.41543   0.0000000000
C          C       0.39893   0.09871   0.41543   0.0000000000
H          H       0.96828   0.39939   0.53807   0.0000000000
H          H       0.46828   0.89939   0.53807   0.0000000000
H          H       0.03172   0.39939   0.46193   0.0000000000
H          H       0.53172   0.89939   0.46193   0.0000000000
H          H       0.03172   0.60061   0.46193   0.0000000000
H          H       0.53172   0.10061   0.46193   0.0000000000
H          H       0.96828   0.60061   0.53807   0.0000000000
H          H       0.46828   0.10061   0.53807   0.0000000000
H          H       0.86944   0.43911   0.81180   0.0000000000
H          H       0.36944   0.93911   0.81180   0.0000000000
H          H       0.13056   0.43911   0.18820   0.0000000000
H          H       0.63056   0.93911   0.18820   0.0000000000
H          H       0.13056   0.56090   0.18820   0.0000000000
H          H       0.63056   0.06089   0.18820   0.0000000000
H          H       0.86944   0.56090   0.81180   0.0000000000
H          H       0.36944   0.06089   0.81180   0.0000000000
H          H       0.82739   0.38329   0.79248   0.0000000000
H          H       0.32739   0.88329   0.79248   0.0000000000
H          H       0.17261   0.38329   0.20752   0.0000000000
H          H       0.67261   0.88329   0.20752   0.0000000000
H          H       0.17261   0.61671   0.20752   0.0000000000
H          H       0.67261   0.11671   0.20752   0.0000000000
H          H       0.82739   0.61671   0.79248   0.0000000000
H          H       0.32739   0.11671   0.79248   0.0000000000
H          H       0.87551   0.34951   0.29572   0.0000000000
H          H       0.37551   0.84951   0.29572   0.0000000000
H          H       0.12449   0.34951   0.70428   0.0000000000
H          H       0.62449   0.84951   0.70428   0.0000000000
H          H       0.12449   0.65049   0.70428   0.0000000000
H          H       0.62449   0.15049   0.70428   0.0000000000
H          H       0.87551   0.65049   0.29572   0.0000000000
H          H       0.37551   0.15049   0.29572   0.0000000000
H          H       0.91720   0.40605   0.31090   0.0000000000
H          H       0.41720   0.90605   0.31090   0.0000000000
H          H       0.08280   0.40605   0.68910   0.0000000000
H          H       0.58280   0.90605   0.68910   0.0000000000
H          H       0.08280   0.59395   0.68910   0.0000000000
H          H       0.58280   0.09395   0.68910   0.0000000000
H          H       0.91720   0.59395   0.31090   0.0000000000
H          H       0.41720   0.09395   0.31090   0.0000000000
C          C       0.90255   0.50000   0.59294   0.0000000000
C          C       0.40255   0.00000   0.59294   0.0000000000
C          C       0.09745   0.50000   0.40706   0.0000000000
C          C       0.59745   0.00000   0.40706   0.0000000000
C          C       0.01986   0.50000   0.48386   0.0000000000
C          C       0.51986   0.00000   0.48386   0.0000000000
C          C       0.98014   0.50000   0.51614   0.0000000000
C          C       0.48014   0.00000   0.51614   0.0000000000
H          H       0.87419   0.50000   0.61778   0.0000000000
H          H       0.37419   0.00000   0.61778   0.0000000000
H          H       0.12581   0.50000   0.38222   0.0000000000
H          H       0.62581   0.00000   0.38222   0.0000000000
N          N       0.32413   0.16974   0.51373   0.0000000000
N          N       0.82413   0.66974   0.51373   0.0000000000
N          N       0.67587   0.16974   0.48627   0.0000000000
N          N       0.17587   0.66974   0.48627   0.0000000000
N          N       0.67587   0.83026   0.48627   0.0000000000
N          N       0.17587   0.33026   0.48627   0.0000000000
N          N       0.32413   0.83026   0.51373   0.0000000000
N          N       0.82413   0.33026   0.51373   0.0000000000
C          C       0.29567   0.18470   0.61293   0.0000000000
C          C       0.79567   0.68470   0.61293   0.0000000000
C          C       0.70433   0.18470   0.38707   0.0000000000
C          C       0.20433   0.68470   0.38707   0.0000000000
C          C       0.70433   0.81530   0.38707   0.0000000000
C          C       0.20433   0.31530   0.38707   0.0000000000
C          C       0.29567   0.81530   0.61293   0.0000000000
C          C       0.79567   0.31530   0.61293   0.0000000000
C          C       0.27356   0.21723   0.55304   0.0000000000
C          C       0.77356   0.71723   0.55304   0.0000000000
C          C       0.72644   0.21723   0.44696   0.0000000000
C          C       0.22644   0.71723   0.44696   0.0000000000
C          C       0.72644   0.78277   0.44696   0.0000000000
C          C       0.22644   0.28277   0.44696   0.0000000000
C          C       0.27356   0.78277   0.55304   0.0000000000
C          C       0.77356   0.28277   0.55304   0.0000000000
C          C       0.24449   0.23128   0.66710   0.0000000000
C          C       0.74449   0.73128   0.66710   0.0000000000
C          C       0.75551   0.23128   0.33290   0.0000000000
C          C       0.25551   0.73128   0.33290   0.0000000000
C          C       0.75551   0.76872   0.33290   0.0000000000
C          C       0.25551   0.26872   0.33290   0.0000000000
C          C       0.24449   0.76872   0.66710   0.0000000000
C          C       0.74449   0.26872   0.66710   0.0000000000
C          C       0.22127   0.26345   0.61615   0.0000000000
C          C       0.72127   0.76345   0.61615   0.0000000000
C          C       0.77873   0.26345   0.38385   0.0000000000
C          C       0.27873   0.76345   0.38385   0.0000000000
C          C       0.77873   0.73655   0.38385   0.0000000000
C          C       0.27873   0.23655   0.38385   0.0000000000
C          C       0.22127   0.73655   0.61615   0.0000000000
C          C       0.72127   0.23655   0.61615   0.0000000000
H          H       0.23987   0.21813   0.78994   0.0000000000
H          H       0.73987   0.71813   0.78994   0.0000000000
H          H       0.76013   0.21813   0.21006   0.0000000000
H          H       0.26013   0.71813   0.21006   0.0000000000
H          H       0.76013   0.78187   0.21006   0.0000000000
H          H       0.26013   0.28187   0.21006   0.0000000000
H          H       0.23987   0.78187   0.78994   0.0000000000
H          H       0.73987   0.28187   0.78994   0.0000000000
O          O       0.19469   0.27418   0.73757   0.0000000000
O          O       0.69469   0.77418   0.73757   0.0000000000
O          O       0.80531   0.27418   0.26243   0.0000000000
O          O       0.30531   0.77418   0.26243   0.0000000000
O          O       0.80531   0.72582   0.26243   0.0000000000
O          O       0.30531   0.22582   0.26243   0.0000000000
O          O       0.19469   0.72582   0.73757   0.0000000000
O          O       0.69469   0.22582   0.73757   0.0000000000
H          H       0.28984   0.17189   0.73520   0.0000000000
H          H       0.19180   0.25953   0.85126   0.0000000000
H          H       0.78984   0.67189   0.73520   0.0000000000
H          H       0.69180   0.75953   0.85126   0.0000000000
H          H       0.71016   0.17189   0.26480   0.0000000000
H          H       0.80820   0.25953   0.14874   0.0000000000
H          H       0.21016   0.67189   0.26480   0.0000000000
H          H       0.30820   0.75953   0.14874   0.0000000000
H          H       0.71016   0.82811   0.26480   0.0000000000
H          H       0.80820   0.74047   0.14874   0.0000000000
H          H       0.21016   0.32811   0.26480   0.0000000000
H          H       0.30820   0.24047   0.14874   0.0000000000
H          H       0.28984   0.82811   0.73520   0.0000000000
H          H       0.19180   0.74047   0.85126   0.0000000000
H          H       0.78984   0.32811   0.73520   0.0000000000
H          H       0.69180   0.24047   0.85126   0.0000000000
