data_crystal

_cell_length_a    35.59540
_cell_length_b    33.24730
_cell_length_c    14.82920
_cell_angle_alpha 90.00000
_cell_angle_beta  90.00000
_cell_angle_gamma 90.00000

_space_group_name_Hall 'P 1'
_space_group_name_H-M_alt  'P 1'

loop_
_symmetry_equiv_pos_as_xyz
'x,y,z' 

loop_
_atom_site_label
_atom_site_type_symbol
_atom_site_fract_x
_atom_site_fract_y
_atom_site_fract_z
C          C       0.03978   0.46291   0.23364 
C          C       0.53978   0.96291   0.23364 
C          C       0.96022   0.46291   0.26637 
C          C       0.46022   0.96291   0.26637 
C          C       0.96022   0.53709   0.26637 
C          C       0.46022   0.03709   0.26637 
C          C       0.03978   0.53709   0.23364 
C          C       0.53978   0.03709   0.23364 
C          C       0.98081   0.42672   0.25962 
C          C       0.48081   0.92672   0.25962 
C          C       0.01919   0.42672   0.24037 
C          C       0.51919   0.92672   0.24037 
C          C       0.01919   0.57328   0.24037 
C          C       0.51919   0.07328   0.24037 
C          C       0.98081   0.57328   0.25962 
C          C       0.48081   0.07328   0.25962 
C          C       0.92085   0.46282   0.28356 
C          C       0.42085   0.96282   0.28356 
C          C       0.07915   0.46282   0.21643 
C          C       0.57915   0.96282   0.21643 
C          C       0.07915   0.53718   0.21643 
C          C       0.57915   0.03718   0.21643 
C          C       0.92085   0.53718   0.28356 
C          C       0.42085   0.03718   0.28356 
C          C       0.89764   0.42813   0.28184 
C          C       0.39764   0.92813   0.28184 
C          C       0.10236   0.42813   0.21816 
C          C       0.60236   0.92813   0.21816 
C          C       0.10236   0.57187   0.21816 
C          C       0.60236   0.07187   0.21816 
C          C       0.89764   0.57187   0.28184 
C          C       0.39764   0.07187   0.28184 
C          C       0.87097   0.42064   0.35074 
C          C       0.37097   0.92064   0.35074 
C          C       0.12903   0.42064   0.14925 
C          C       0.62903   0.92064   0.14925 
C          C       0.12903   0.57936   0.14925 
C          C       0.62903   0.07936   0.14925 
C          C       0.87097   0.57936   0.35074 
C          C       0.37097   0.07936   0.35074 
C          C       0.84627   0.38772   0.34543 
C          C       0.34627   0.88772   0.34543 
C          C       0.15373   0.38772   0.15457 
C          C       0.65373   0.88772   0.15457 
C          C       0.15373   0.61228   0.15457 
C          C       0.65373   0.11228   0.15457 
C          C       0.84627   0.61228   0.34543 
C          C       0.34627   0.11228   0.34543 
C          C       0.84750   0.36160   0.27043 
C          C       0.34750   0.86160   0.27043 
C          C       0.15250   0.36160   0.22956 
C          C       0.65250   0.86160   0.22956 
C          C       0.15250   0.63840   0.22956 
C          C       0.65250   0.13840   0.22956 
C          C       0.84750   0.63840   0.27043 
C          C       0.34750   0.13840   0.27043 
C          C       0.87427   0.36838   0.20239 
C          C       0.37427   0.86838   0.20239 
C          C       0.12573   0.36838   0.29762 
C          C       0.62573   0.86838   0.29762 
C          C       0.12573   0.63162   0.29762 
C          C       0.62573   0.13162   0.29762 
C          C       0.87427   0.63162   0.20239 
C          C       0.37427   0.13162   0.20239 
C          C       0.89893   0.40129   0.20772 
C          C       0.39893   0.90129   0.20772 
C          C       0.10107   0.40129   0.29229 
C          C       0.60107   0.90129   0.29229 
C          C       0.10107   0.59871   0.29229 
C          C       0.60107   0.09871   0.29229 
C          C       0.89893   0.59871   0.20772 
C          C       0.39893   0.09871   0.20772 
H          H       0.96828   0.39939   0.26904 
H          H       0.46828   0.89939   0.26904 
H          H       0.03172   0.39939   0.23096 
H          H       0.53172   0.89939   0.23096 
H          H       0.03172   0.60061   0.23096 
H          H       0.53172   0.10061   0.23096 
H          H       0.96828   0.60061   0.26904 
H          H       0.46828   0.10061   0.26904 
H          H       0.86944   0.43911   0.40590 
H          H       0.36944   0.93911   0.40590 
H          H       0.13056   0.43911   0.09410 
H          H       0.63056   0.93911   0.09410 
H          H       0.13056   0.56090   0.09410 
H          H       0.63056   0.06089   0.09410 
H          H       0.86944   0.56090   0.40590 
H          H       0.36944   0.06089   0.40590 
H          H       0.82739   0.38329   0.39624 
H          H       0.32739   0.88329   0.39624 
H          H       0.17261   0.38329   0.10376 
H          H       0.67261   0.88329   0.10376 
H          H       0.17261   0.61671   0.10376 
H          H       0.67261   0.11671   0.10376 
H          H       0.82739   0.61671   0.39624 
H          H       0.32739   0.11671   0.39624 
H          H       0.87551   0.34951   0.14786 
H          H       0.37551   0.84951   0.14786 
H          H       0.12449   0.34951   0.35214 
H          H       0.62449   0.84951   0.35214 
H          H       0.12449   0.65049   0.35214 
H          H       0.62449   0.15049   0.35214 
H          H       0.87551   0.65049   0.14786 
H          H       0.37551   0.15049   0.14786 
H          H       0.91720   0.40605   0.15545 
H          H       0.41720   0.90605   0.15545 
H          H       0.08280   0.40605   0.34455 
H          H       0.58280   0.90605   0.34455 
H          H       0.08280   0.59395   0.34455 
H          H       0.58280   0.09395   0.34455 
H          H       0.91720   0.59395   0.15545 
H          H       0.41720   0.09395   0.15545 
C          C       0.90255   0.50000   0.29647 
C          C       0.40255   0.00000   0.29647 
C          C       0.09745   0.50000   0.20353 
C          C       0.59745   0.00000   0.20353 
C          C       0.01986   0.50000   0.24193 
C          C       0.51986  -0.00000   0.24193 
C          C       0.98014   0.50000   0.25807 
C          C       0.48014   0.00000   0.25807 
H          H       0.87419   0.50000   0.30889 
H          H       0.37419   0.00000   0.30889 
H          H       0.12581   0.50000   0.19111 
H          H       0.62581  -0.00000   0.19111 
N          N       0.32413   0.16974   0.25687 
N          N       0.82413   0.66974   0.25687 
N          N       0.67587   0.16974   0.24313 
N          N       0.17587   0.66974   0.24313 
N          N       0.67587   0.83026   0.24313 
N          N       0.17587   0.33026   0.24313 
N          N       0.32413   0.83026   0.25687 
N          N       0.82413   0.33026   0.25687 
C          C       0.29567   0.18470   0.30646 
C          C       0.79567   0.68470   0.30646 
C          C       0.70433   0.18470   0.19354 
C          C       0.20433   0.68470   0.19354 
C          C       0.70433   0.81530   0.19354 
C          C       0.20433   0.31530   0.19354 
C          C       0.29567   0.81530   0.30646 
C          C       0.79567   0.31530   0.30646 
C          C       0.27356   0.21723   0.27652 
C          C       0.77356   0.71723   0.27652 
C          C       0.72644   0.21723   0.22348 
C          C       0.22644   0.71723   0.22348 
C          C       0.72644   0.78277   0.22348 
C          C       0.22644   0.28277   0.22348 
C          C       0.27356   0.78277   0.27652 
C          C       0.77356   0.28277   0.27652 
C          C       0.24449   0.23128   0.33355 
C          C       0.74449   0.73128   0.33355 
C          C       0.75551   0.23128   0.16645 
C          C       0.25551   0.73128   0.16645 
C          C       0.75551   0.76872   0.16645 
C          C       0.25551   0.26872   0.16645 
C          C       0.24449   0.76872   0.33355 
C          C       0.74449   0.26872   0.33355 
C          C       0.22127   0.26345   0.30807 
C          C       0.72127   0.76345   0.30807 
C          C       0.77873   0.26345   0.19193 
C          C       0.27873   0.76345   0.19193 
C          C       0.77873   0.73655   0.19193 
C          C       0.27873   0.23655   0.19193 
C          C       0.22127   0.73655   0.30807 
C          C       0.72127   0.23655   0.30807 
H          H       0.23987   0.21813   0.39497 
H          H       0.73987   0.71813   0.39497 
H          H       0.76013   0.21813   0.10503 
H          H       0.26013   0.71813   0.10503 
H          H       0.76013   0.78187   0.10503 
H          H       0.26013   0.28187   0.10503 
H          H       0.23987   0.78187   0.39497 
H          H       0.73987   0.28187   0.39497 
O          O       0.19469   0.27418   0.36878 
O          O       0.69469   0.77418   0.36878 
O          O       0.80531   0.27418   0.13121 
O          O       0.30531   0.77418   0.13121 
O          O       0.80531   0.72582   0.13121 
O          O       0.30531   0.22582   0.13121 
O          O       0.19469   0.72582   0.36878 
O          O       0.69469   0.22582   0.36878 
H          H       0.28984   0.17189   0.36760 
H          H       0.19180   0.25953   0.42563 
H          H       0.78984   0.67189   0.36760 
H          H       0.69180   0.75953   0.42563 
H          H       0.71016   0.17189   0.13240 
H          H       0.80820   0.25953   0.07437 
H          H       0.21016   0.67189   0.13240 
H          H       0.30820   0.75953   0.07437 
H          H       0.71016   0.82811   0.13240 
H          H       0.80820   0.74047   0.07437 
H          H       0.21016   0.32811   0.13240 
H          H       0.30820   0.24047   0.07437 
H          H       0.28984   0.82811   0.36760 
H          H       0.19180   0.74047   0.42563 
H          H       0.78984   0.32811   0.36760 
H          H       0.69180   0.24047   0.42563 
C          C       0.03978   0.46291   0.73364 
C          C       0.53978   0.96291   0.73364 
C          C       0.96022   0.46291   0.76636 
C          C       0.46022   0.96291   0.76636 
C          C       0.96022   0.53709   0.76636 
C          C       0.46022   0.03709   0.76636 
C          C       0.03978   0.53709   0.73364 
C          C       0.53978   0.03709   0.73364 
C          C       0.98081   0.42672   0.75962 
C          C       0.48081   0.92672   0.75962 
C          C       0.01919   0.42672   0.74037 
C          C       0.51919   0.92672   0.74037 
C          C       0.01919   0.57328   0.74037 
C          C       0.51919   0.07328   0.74037 
C          C       0.98081   0.57328   0.75962 
C          C       0.48081   0.07328   0.75962 
C          C       0.92085   0.46282   0.78356 
C          C       0.42085   0.96282   0.78356 
C          C       0.07915   0.46282   0.71643 
C          C       0.57915   0.96282   0.71643 
C          C       0.07915   0.53718   0.71643 
C          C       0.57915   0.03718   0.71643 
C          C       0.92085   0.53718   0.78356 
C          C       0.42085   0.03718   0.78356 
C          C       0.89764   0.42813   0.78183 
C          C       0.39764   0.92813   0.78183 
C          C       0.10236   0.42813   0.71816 
C          C       0.60236   0.92813   0.71816 
C          C       0.10236   0.57187   0.71816 
C          C       0.60236   0.07187   0.71816 
C          C       0.89764   0.57187   0.78183 
C          C       0.39764   0.07187   0.78183 
C          C       0.87097   0.42064   0.85074 
C          C       0.37097   0.92064   0.85074 
C          C       0.12903   0.42064   0.64925 
C          C       0.62903   0.92064   0.64925 
C          C       0.12903   0.57936   0.64925 
C          C       0.62903   0.07936   0.64925 
C          C       0.87097   0.57936   0.85074 
C          C       0.37097   0.07936   0.85074 
C          C       0.84627   0.38772   0.84543 
C          C       0.34627   0.88772   0.84543 
C          C       0.15373   0.38772   0.65457 
C          C       0.65373   0.88772   0.65457 
C          C       0.15373   0.61228   0.65457 
C          C       0.65373   0.11228   0.65457 
C          C       0.84627   0.61228   0.84543 
C          C       0.34627   0.11228   0.84543 
C          C       0.84750   0.36160   0.77043 
C          C       0.34750   0.86160   0.77043 
C          C       0.15250   0.36160   0.72957 
C          C       0.65250   0.86160   0.72957 
C          C       0.15250   0.63840   0.72957 
C          C       0.65250   0.13840   0.72957 
C          C       0.84750   0.63840   0.77043 
C          C       0.34750   0.13840   0.77043 
C          C       0.87427   0.36838   0.70239 
C          C       0.37427   0.86838   0.70239 
C          C       0.12573   0.36838   0.79761 
C          C       0.62573   0.86838   0.79761 
C          C       0.12573   0.63162   0.79761 
C          C       0.62573   0.13162   0.79761 
C          C       0.87427   0.63162   0.70239 
C          C       0.37427   0.13162   0.70239 
C          C       0.89893   0.40129   0.70771 
C          C       0.39893   0.90129   0.70771 
C          C       0.10107   0.40129   0.79228 
C          C       0.60107   0.90129   0.79228 
C          C       0.10107   0.59871   0.79228 
C          C       0.60107   0.09871   0.79228 
C          C       0.89893   0.59871   0.70771 
C          C       0.39893   0.09871   0.70771 
H          H       0.96828   0.39939   0.76904 
H          H       0.46828   0.89939   0.76904 
H          H       0.03172   0.39939   0.73096 
H          H       0.53172   0.89939   0.73096 
H          H       0.03172   0.60061   0.73096 
H          H       0.53172   0.10061   0.73096 
H          H       0.96828   0.60061   0.76904 
H          H       0.46828   0.10061   0.76904 
H          H       0.86944   0.43911   0.90590 
H          H       0.36944   0.93911   0.90590 
H          H       0.13056   0.43911   0.59410 
H          H       0.63056   0.93911   0.59410 
H          H       0.13056   0.56090   0.59410 
H          H       0.63056   0.06089   0.59410 
H          H       0.86944   0.56090   0.90590 
H          H       0.36944   0.06089   0.90590 
H          H       0.82739   0.38329   0.89624 
H          H       0.32739   0.88329   0.89624 
H          H       0.17261   0.38329   0.60376 
H          H       0.67261   0.88329   0.60376 
H          H       0.17261   0.61671   0.60376 
H          H       0.67261   0.11671   0.60376 
H          H       0.82739   0.61671   0.89624 
H          H       0.32739   0.11671   0.89624 
H          H       0.87551   0.34951   0.64786 
H          H       0.37551   0.84951   0.64786 
H          H       0.12449   0.34951   0.85214 
H          H       0.62449   0.84951   0.85214 
H          H       0.12449   0.65049   0.85214 
H          H       0.62449   0.15049   0.85214 
H          H       0.87551   0.65049   0.64786 
H          H       0.37551   0.15049   0.64786 
H          H       0.91720   0.40605   0.65545 
H          H       0.41720   0.90605   0.65545 
H          H       0.08280   0.40605   0.84455 
H          H       0.58280   0.90605   0.84455 
H          H       0.08280   0.59395   0.84455 
H          H       0.58280   0.09395   0.84455 
H          H       0.91720   0.59395   0.65545 
H          H       0.41720   0.09395   0.65545 
C          C       0.90255   0.50000   0.79647 
C          C       0.40255   0.00000   0.79647 
C          C       0.09745   0.50000   0.70353 
C          C       0.59745   0.00000   0.70353 
C          C       0.01986   0.50000   0.74193 
C          C       0.51986   0.00000   0.74193 
C          C       0.98014   0.50000   0.75807 
C          C       0.48014  -0.00000   0.75807 
H          H       0.87419   0.50000   0.80889 
H          H       0.37419   0.00000   0.80889 
H          H       0.12581   0.50000   0.69111 
H          H       0.62581   0.00000   0.69111 
N          N       0.32413   0.16974   0.75686 
N          N       0.82413   0.66974   0.75686 
N          N       0.67587   0.16974   0.74313 
N          N       0.17587   0.66974   0.74313 
N          N       0.67587   0.83026   0.74313 
N          N       0.17587   0.33026   0.74313 
N          N       0.32413   0.83026   0.75686 
N          N       0.82413   0.33026   0.75686 
C          C       0.29567   0.18470   0.80646 
C          C       0.79567   0.68470   0.80646 
C          C       0.70433   0.18470   0.69353 
C          C       0.20433   0.68470   0.69353 
C          C       0.70433   0.81530   0.69353 
C          C       0.20433   0.31530   0.69353 
C          C       0.29567   0.81530   0.80646 
C          C       0.79567   0.31530   0.80646 
C          C       0.27356   0.21723   0.77652 
C          C       0.77356   0.71723   0.77652 
C          C       0.72644   0.21723   0.72348 
C          C       0.22644   0.71723   0.72348 
C          C       0.72644   0.78277   0.72348 
C          C       0.22644   0.28277   0.72348 
C          C       0.27356   0.78277   0.77652 
C          C       0.77356   0.28277   0.77652 
C          C       0.24449   0.23128   0.83355 
C          C       0.74449   0.73128   0.83355 
C          C       0.75551   0.23128   0.66645 
C          C       0.25551   0.73128   0.66645 
C          C       0.75551   0.76872   0.66645 
C          C       0.25551   0.26872   0.66645 
C          C       0.24449   0.76872   0.83355 
C          C       0.74449   0.26872   0.83355 
C          C       0.22127   0.26345   0.80807 
C          C       0.72127   0.76345   0.80807 
C          C       0.77873   0.26345   0.69193 
C          C       0.27873   0.76345   0.69193 
C          C       0.77873   0.73655   0.69193 
C          C       0.27873   0.23655   0.69193 
C          C       0.22127   0.73655   0.80807 
C          C       0.72127   0.23655   0.80807 
H          H       0.23987   0.21813   0.89497 
H          H       0.73987   0.71813   0.89497 
H          H       0.76013   0.21813   0.60503 
H          H       0.26013   0.71813   0.60503 
H          H       0.76013   0.78187   0.60503 
H          H       0.26013   0.28187   0.60503 
H          H       0.23987   0.78187   0.89497 
H          H       0.73987   0.28187   0.89497 
O          O       0.19469   0.27418   0.86878 
O          O       0.69469   0.77418   0.86878 
O          O       0.80531   0.27418   0.63121 
O          O       0.30531   0.77418   0.63121 
O          O       0.80531   0.72582   0.63121 
O          O       0.30531   0.22582   0.63121 
O          O       0.19469   0.72582   0.86878 
O          O       0.69469   0.22582   0.86878 
H          H       0.28984   0.17189   0.86760 
H          H       0.19180   0.25953   0.92563 
H          H       0.78984   0.67189   0.86760 
H          H       0.69180   0.75953   0.92563 
H          H       0.71016   0.17189   0.63240 
H          H       0.80820   0.25953   0.57437 
H          H       0.21016   0.67189   0.63240 
H          H       0.30820   0.75953   0.57437 
H          H       0.71016   0.82811   0.63240 
H          H       0.80820   0.74047   0.57437 
H          H       0.21016   0.32811   0.63240 
H          H       0.30820   0.24047   0.57437 
H          H       0.28984   0.82811   0.86760 
H          H       0.19180   0.74047   0.92563 
H          H       0.78984   0.32811   0.86760 
H          H       0.69180   0.24047   0.92563 
