data_crystal

_cell_length_a    37.67090
_cell_length_b    43.27420
_cell_length_c    8.01400
_cell_angle_alpha 90.00000
_cell_angle_beta  90.00000
_cell_angle_gamma 90.00000

_space_group_name_Hall 'P 1'
_space_group_name_H-M_alt  'P 1'

loop_
_symmetry_equiv_pos_as_xyz
'x,y,z' 

loop_
_atom_site_label
_atom_site_type_symbol
_atom_site_fract_x
_atom_site_fract_y
_atom_site_fract_z
C          C       0.96730   0.46672   0.16973 
C          C       0.46733   0.96669   0.28788 
C          C       0.03272   0.53328   0.16973 
C          C       0.53270   0.03331   0.28788 
C          C       0.96730   0.53328   0.16973 
C          C       0.46733   0.03331   0.28788 
C          C       0.03272   0.46672   0.16973 
C          C       0.53270   0.96669   0.28788 
C          C       0.93605   0.51614   0.13971 
C          C       0.43610   0.01614   0.25749 
C          C       0.06398   0.48386   0.13971 
C          C       0.56393   0.98386   0.25749 
C          C       0.93605   0.48386   0.13971 
C          C       0.43610   0.98386   0.25749 
C          C       0.06398   0.51614   0.13971 
C          C       0.56393   0.01614   0.25749 
C          C       0.96694   0.56593   0.19573 
C          C       0.46696   0.06598   0.31333 
C          C       0.03309   0.43407   0.19573 
C          C       0.53307   0.93402   0.31333 
C          C       0.96694   0.43407   0.19573 
C          C       0.46696   0.93402   0.31333 
C          C       0.03309   0.56593   0.19573 
C          C       0.53307   0.06598   0.31333 
C          C       0.93594   0.58476   0.20660 
C          C       0.43587   0.08471   0.32281 
C          C       0.06409   0.41524   0.20660 
C          C       0.56416   0.91529   0.32281 
C          C       0.93594   0.41524   0.20660 
C          C       0.43587   0.91529   0.32281 
C          C       0.06409   0.58476   0.20660 
C          C       0.56416   0.08471   0.32281 
C          C       0.90604   0.57616   0.30292 
C          C       0.40591   0.07601   0.41844 
C          C       0.09399   0.42384   0.30292 
C          C       0.59412   0.92399   0.41844 
C          C       0.90604   0.42384   0.30292 
C          C       0.40591   0.92399   0.41844 
C          C       0.09399   0.57616   0.30292 
C          C       0.59412   0.07601   0.41844 
C          C       0.87573   0.59506   0.31404 
C          C       0.37505   0.09429   0.42428 
C          C       0.12430   0.40494   0.31404 
C          C       0.62498   0.90571   0.42428 
C          C       0.87573   0.40494   0.31404 
C          C       0.37505   0.90571   0.42428 
C          C       0.12430   0.59506   0.31404 
C          C       0.62498   0.09429   0.42428 
C          C       0.87464   0.62419   0.23446 
C          C       0.37338   0.12291   0.33964 
C          C       0.12538   0.37581   0.23446 
C          C       0.62665   0.87709   0.33964 
C          C       0.87464   0.37581   0.23446 
C          C       0.37338   0.87709   0.33964 
C          C       0.12538   0.62419   0.23446 
C          C       0.62665   0.12291   0.33964 
C          C       0.90452   0.63324   0.13955 
C          C       0.40359   0.13238   0.24832 
C          C       0.09551   0.36676   0.13955 
C          C       0.59644   0.86762   0.24832 
C          C       0.90452   0.36676   0.13955 
C          C       0.40359   0.86762   0.24832 
C          C       0.09551   0.63324   0.13955 
C          C       0.59644   0.13238   0.24832 
C          C       0.93426   0.61376   0.12431 
C          C       0.43395   0.11350   0.23856 
C          C       0.06576   0.38624   0.12431 
C          C       0.56607   0.88649   0.23856 
C          C       0.93426   0.38624   0.12431 
C          C       0.43395   0.88649   0.23856 
C          C       0.06576   0.61376   0.12431 
C          C       0.56607   0.11350   0.23856 
C          C       0.84466   0.64339   0.25299 
C          C       0.34225   0.14092   0.34776 
C          C       0.15537   0.35661   0.25299 
C          C       0.65778   0.85908   0.34776 
C          C       0.84466   0.35661   0.25299 
C          C       0.34225   0.85908   0.34776 
C          C       0.15537   0.64339   0.25299 
C          C       0.65778   0.14092   0.34776 
H          H       0.91239   0.52683   0.11835 
H          H       0.41245   0.02680   0.23561 
H          H       0.08764   0.47316   0.11835 
H          H       0.58758   0.97320   0.23561 
H          H       0.91239   0.47316   0.11835 
H          H       0.41245   0.97320   0.23561 
H          H       0.08764   0.52683   0.11835 
H          H       0.58758   0.02680   0.23561 
H          H       0.90621   0.55600   0.36863 
H          H       0.40637   0.05614   0.48667 
H          H       0.09382   0.44400   0.36863 
H          H       0.59366   0.94386   0.48667 
H          H       0.90621   0.44400   0.36863 
H          H       0.40637   0.94386   0.48667 
H          H       0.09382   0.55600   0.36863 
H          H       0.59366   0.05614   0.48667 
H          H       0.85470   0.58758   0.38421 
H          H       0.35394   0.08665   0.49338 
H          H       0.14533   0.41241   0.38421 
H          H       0.64609   0.91335   0.49338 
H          H       0.85470   0.41241   0.38421 
H          H       0.35394   0.91335   0.49338 
H          H       0.14533   0.58758   0.38421 
H          H       0.64609   0.08665   0.49338 
H          H       0.90470   0.65406   0.07896 
H          H       0.40350   0.15301   0.18574 
H          H       0.09533   0.34594   0.07896 
H          H       0.59653   0.84699   0.18574 
H          H       0.90470   0.34594   0.07896 
H          H       0.40350   0.84699   0.18574 
H          H       0.09533   0.65406   0.07896 
H          H       0.59653   0.15301   0.18574 
H          H       0.95482   0.62100   0.05051 
H          H       0.45470   0.12095   0.16657 
H          H       0.04521   0.37900   0.05051 
H          H       0.54533   0.87905   0.16657 
H          H       0.95482   0.37900   0.05051 
H          H       0.45470   0.87905   0.16657 
H          H       0.04521   0.62100   0.05051 
H          H       0.54533   0.12095   0.16657 
H          H       0.82330   0.63522   0.31827 
H          H       0.32126   0.13281   0.41585 
H          H       0.17673   0.36478   0.31827 
H          H       0.67877   0.86719   0.41585 
H          H       0.82330   0.36478   0.31827 
H          H       0.32126   0.86719   0.41585 
H          H       0.17673   0.63522   0.31827 
H          H       0.67877   0.13281   0.41585 
N          N       0.84382   0.67247   0.19079 
N          N       0.33944   0.16858   0.26985 
N          N       0.15621   0.32753   0.19079 
N          N       0.66059   0.83142   0.26985 
N          N       0.84382   0.32753   0.19079 
N          N       0.33944   0.83142   0.26985 
N          N       0.15621   0.67247   0.19079 
N          N       0.66059   0.16858   0.26985 
C          C       0.00001   0.58084   0.21660 
C          C       0.00001   0.41916   0.21660 
C          C       0.50001   0.08094   0.33379 
C          C       0.50001   0.91906   0.33379 
C          C       0.00001   0.48340   0.17036 
C          C       0.00001   0.51660   0.17036 
C          C       0.50001   0.98339   0.28884 
C          C       0.50001   0.01661   0.28884 
H          H       0.00001   0.60377   0.24877 
H          H       0.00001   0.39623   0.24877 
H          H       0.50001   0.10392   0.36495 
H          H       0.50001   0.89608   0.36495 
C          C       0.18185   0.30561   0.19730 
C          C       0.17261   0.27580   0.14167 
C          C       0.19725   0.25136   0.14936 
C          C       0.23180   0.25686   0.21200 
N          N       0.24006   0.28613   0.26082 
C          C       0.21684   0.31011   0.25605 
H          H       0.14768   0.27184   0.09578 
H          H       0.18998   0.22991   0.10837 
H          H       0.22524   0.33123   0.29587 
C          C       0.68833   0.81158   0.25873 
C          C       0.68148   0.78156   0.19892 
N          N       0.70808   0.76048   0.18658 
C          C       0.74247   0.76661   0.22731 
C          C       0.75077   0.79661   0.28590 
C          C       0.72373   0.81888   0.30179 
H          H       0.65634   0.77533   0.16505 
H          H       0.77616   0.80225   0.31911 
H          H       0.73011   0.84037   0.34460 
C          C       0.81818   0.69439   0.19730 
C          C       0.82742   0.72420   0.14167 
C          C       0.80278   0.74864   0.14936 
C          C       0.76823   0.74314   0.21200 
N          N       0.75997   0.71387   0.26082 
C          C       0.78319   0.68989   0.25605 
H          H       0.85235   0.72816   0.09578 
H          H       0.81005   0.77009   0.10837 
H          H       0.77479   0.66877   0.29587 
C          C       0.31170   0.18842   0.25873 
C          C       0.31855   0.21844   0.19892 
N          N       0.29195   0.23952   0.18658 
C          C       0.25756   0.23339   0.22731 
C          C       0.24926   0.20339   0.28590 
C          C       0.27630   0.18111   0.30179 
H          H       0.34368   0.22467   0.16505 
H          H       0.22387   0.19775   0.31911 
H          H       0.26991   0.15963   0.34460 
C          C       0.18185   0.69439   0.19730 
C          C       0.17261   0.72420   0.14167 
C          C       0.19725   0.74864   0.14936 
C          C       0.23180   0.74314   0.21200 
N          N       0.24006   0.71387   0.26082 
C          C       0.21684   0.68989   0.25605 
H          H       0.14768   0.72816   0.09578 
H          H       0.18998   0.77009   0.10837 
H          H       0.22524   0.66877   0.29587 
C          C       0.68833   0.18842   0.25873 
C          C       0.68148   0.21844   0.19892 
N          N       0.70808   0.23952   0.18658 
C          C       0.74247   0.23339   0.22731 
C          C       0.75077   0.20339   0.28590 
C          C       0.72373   0.18111   0.30179 
H          H       0.65634   0.22467   0.16505 
H          H       0.77616   0.19775   0.31911 
H          H       0.73011   0.15963   0.34460 
C          C       0.81818   0.30561   0.19730 
C          C       0.82742   0.27580   0.14167 
C          C       0.80278   0.25136   0.14936 
C          C       0.76823   0.25686   0.21200 
N          N       0.75997   0.28613   0.26082 
C          C       0.78319   0.31011   0.25605 
H          H       0.85235   0.27184   0.09578 
H          H       0.81005   0.22991   0.10837 
H          H       0.77479   0.33123   0.29587 
C          C       0.31170   0.81158   0.25873 
C          C       0.31855   0.78156   0.19892 
N          N       0.29195   0.76048   0.18658 
C          C       0.25756   0.76661   0.22731 
C          C       0.24926   0.79661   0.28590 
C          C       0.27630   0.81888   0.30179 
H          H       0.34368   0.77533   0.16505 
H          H       0.22387   0.80225   0.31911 
H          H       0.26991   0.84037   0.34460 
C          C       0.96730   0.46672   0.66973 
C          C       0.46733   0.96669   0.78788 
C          C       0.03272   0.53328   0.66973 
C          C       0.53270   0.03331   0.78788 
C          C       0.96730   0.53328   0.66973 
C          C       0.46733   0.03331   0.78788 
C          C       0.03272   0.46672   0.66973 
C          C       0.53270   0.96669   0.78788 
C          C       0.93605   0.51614   0.63971 
C          C       0.43610   0.01614   0.75749 
C          C       0.06398   0.48386   0.63971 
C          C       0.56393   0.98386   0.75749 
C          C       0.93605   0.48386   0.63971 
C          C       0.43610   0.98386   0.75749 
C          C       0.06398   0.51614   0.63971 
C          C       0.56393   0.01614   0.75749 
C          C       0.96694   0.56593   0.69573 
C          C       0.46696   0.06598   0.81334 
C          C       0.03309   0.43407   0.69573 
C          C       0.53307   0.93402   0.81334 
C          C       0.96694   0.43407   0.69573 
C          C       0.46696   0.93402   0.81334 
C          C       0.03309   0.56593   0.69573 
C          C       0.53307   0.06598   0.81334 
C          C       0.93594   0.58476   0.70660 
C          C       0.43587   0.08471   0.82280 
C          C       0.06409   0.41524   0.70660 
C          C       0.56416   0.91529   0.82280 
C          C       0.93594   0.41524   0.70660 
C          C       0.43587   0.91529   0.82280 
C          C       0.06409   0.58476   0.70660 
C          C       0.56416   0.08471   0.82280 
C          C       0.90604   0.57616   0.80292 
C          C       0.40591   0.07601   0.91844 
C          C       0.09399   0.42384   0.80292 
C          C       0.59412   0.92399   0.91844 
C          C       0.90604   0.42384   0.80292 
C          C       0.40591   0.92399   0.91844 
C          C       0.09399   0.57616   0.80292 
C          C       0.59412   0.07601   0.91844 
C          C       0.87573   0.59506   0.81404 
C          C       0.37505   0.09429   0.92428 
C          C       0.12430   0.40494   0.81404 
C          C       0.62498   0.90571   0.92428 
C          C       0.87573   0.40494   0.81404 
C          C       0.37505   0.90571   0.92428 
C          C       0.12430   0.59506   0.81404 
C          C       0.62498   0.09429   0.92428 
C          C       0.87464   0.62419   0.73446 
C          C       0.37338   0.12291   0.83964 
C          C       0.12538   0.37581   0.73446 
C          C       0.62665   0.87709   0.83964 
C          C       0.87464   0.37581   0.73446 
C          C       0.37338   0.87709   0.83964 
C          C       0.12538   0.62419   0.73446 
C          C       0.62665   0.12291   0.83964 
C          C       0.90452   0.63324   0.63955 
C          C       0.40359   0.13238   0.74832 
C          C       0.09551   0.36676   0.63955 
C          C       0.59644   0.86762   0.74832 
C          C       0.90452   0.36676   0.63955 
C          C       0.40359   0.86762   0.74832 
C          C       0.09551   0.63324   0.63955 
C          C       0.59644   0.13238   0.74832 
C          C       0.93426   0.61376   0.62431 
C          C       0.43395   0.11350   0.73856 
C          C       0.06576   0.38624   0.62431 
C          C       0.56607   0.88649   0.73856 
C          C       0.93426   0.38624   0.62431 
C          C       0.43395   0.88649   0.73856 
C          C       0.06576   0.61376   0.62431 
C          C       0.56607   0.11350   0.73856 
C          C       0.84466   0.64339   0.75299 
C          C       0.34225   0.14092   0.84776 
C          C       0.15537   0.35661   0.75299 
C          C       0.65778   0.85908   0.84776 
C          C       0.84466   0.35661   0.75299 
C          C       0.34225   0.85908   0.84776 
C          C       0.15537   0.64339   0.75299 
C          C       0.65778   0.14092   0.84776 
H          H       0.91239   0.52683   0.61835 
H          H       0.41245   0.02680   0.73562 
H          H       0.08764   0.47316   0.61835 
H          H       0.58758   0.97320   0.73562 
H          H       0.91239   0.47316   0.61835 
H          H       0.41245   0.97320   0.73562 
H          H       0.08764   0.52683   0.61835 
H          H       0.58758   0.02680   0.73562 
H          H       0.90621   0.55600   0.86863 
H          H       0.40637   0.05614   0.98667 
H          H       0.09382   0.44400   0.86863 
H          H       0.59366   0.94386   0.98667 
H          H       0.90621   0.44400   0.86863 
H          H       0.40637   0.94386   0.98667 
H          H       0.09382   0.55600   0.86863 
H          H       0.59366   0.05614   0.98667 
H          H       0.85470   0.58758   0.88421 
H          H       0.35394   0.08665   0.99338 
H          H       0.14533   0.41241   0.88421 
H          H       0.64609   0.91335   0.99338 
H          H       0.85470   0.41241   0.88421 
H          H       0.35394   0.91335   0.99338 
H          H       0.14533   0.58758   0.88421 
H          H       0.64609   0.08665   0.99338 
H          H       0.90470   0.65406   0.57896 
H          H       0.40350   0.15301   0.68574 
H          H       0.09533   0.34594   0.57896 
H          H       0.59653   0.84699   0.68574 
H          H       0.90470   0.34594   0.57896 
H          H       0.40350   0.84699   0.68574 
H          H       0.09533   0.65406   0.57896 
H          H       0.59653   0.15301   0.68574 
H          H       0.95482   0.62100   0.55051 
H          H       0.45470   0.12095   0.66657 
H          H       0.04521   0.37900   0.55051 
H          H       0.54533   0.87905   0.66657 
H          H       0.95482   0.37900   0.55051 
H          H       0.45470   0.87905   0.66657 
H          H       0.04521   0.62100   0.55051 
H          H       0.54533   0.12095   0.66657 
H          H       0.82330   0.63522   0.81827 
H          H       0.32126   0.13281   0.91585 
H          H       0.17673   0.36478   0.81827 
H          H       0.67877   0.86719   0.91585 
H          H       0.82330   0.36478   0.81827 
H          H       0.32126   0.86719   0.91585 
H          H       0.17673   0.63522   0.81827 
H          H       0.67877   0.13281   0.91585 
N          N       0.84382   0.67247   0.69078 
N          N       0.33944   0.16858   0.76985 
N          N       0.15621   0.32753   0.69078 
N          N       0.66059   0.83142   0.76985 
N          N       0.84382   0.32753   0.69078 
N          N       0.33944   0.83142   0.76985 
N          N       0.15621   0.67247   0.69078 
N          N       0.66059   0.16858   0.76985 
C          C       0.00001   0.58084   0.71660 
C          C       0.00001   0.41916   0.71660 
C          C       0.50001   0.08094   0.83379 
C          C       0.50001   0.91906   0.83379 
C          C       0.00001   0.48340   0.67036 
C          C       0.00001   0.51660   0.67036 
C          C       0.50001   0.98339   0.78885 
C          C       0.50001   0.01661   0.78885 
H          H       0.00001   0.60377   0.74877 
H          H       0.00001   0.39623   0.74877 
H          H       0.50001   0.10392   0.86495 
H          H       0.50001   0.89608   0.86495 
C          C       0.18185   0.30561   0.69730 
C          C       0.17261   0.27580   0.64167 
C          C       0.19725   0.25136   0.64936 
C          C       0.23180   0.25686   0.71200 
N          N       0.24006   0.28613   0.76082 
C          C       0.21684   0.31011   0.75605 
H          H       0.14768   0.27184   0.59578 
H          H       0.18998   0.22991   0.60837 
H          H       0.22524   0.33123   0.79587 
C          C       0.68833   0.81158   0.75873 
C          C       0.68148   0.78156   0.69892 
N          N       0.70808   0.76048   0.68658 
C          C       0.74247   0.76661   0.72730 
C          C       0.75077   0.79661   0.78590 
C          C       0.72373   0.81888   0.80179 
H          H       0.65634   0.77533   0.66505 
H          H       0.77616   0.80225   0.81911 
H          H       0.73011   0.84037   0.84460 
C          C       0.81818   0.69439   0.69730 
C          C       0.82742   0.72420   0.64167 
C          C       0.80278   0.74864   0.64936 
C          C       0.76823   0.74314   0.71200 
N          N       0.75997   0.71387   0.76082 
C          C       0.78319   0.68989   0.75605 
H          H       0.85235   0.72816   0.59578 
H          H       0.81005   0.77009   0.60837 
H          H       0.77479   0.66877   0.79587 
C          C       0.31170   0.18842   0.75873 
C          C       0.31855   0.21844   0.69892 
N          N       0.29195   0.23952   0.68658 
C          C       0.25756   0.23339   0.72730 
C          C       0.24926   0.20339   0.78590 
C          C       0.27630   0.18111   0.80179 
H          H       0.34368   0.22467   0.66505 
H          H       0.22387   0.19775   0.81911 
H          H       0.26991   0.15963   0.84460 
C          C       0.18185   0.69439   0.69730 
C          C       0.17261   0.72420   0.64167 
C          C       0.19725   0.74864   0.64936 
C          C       0.23180   0.74314   0.71200 
N          N       0.24006   0.71387   0.76082 
C          C       0.21684   0.68989   0.75605 
H          H       0.14768   0.72816   0.59578 
H          H       0.18998   0.77009   0.60837 
H          H       0.22524   0.66877   0.79587 
C          C       0.68833   0.18842   0.75873 
C          C       0.68148   0.21844   0.69892 
N          N       0.70808   0.23952   0.68658 
C          C       0.74247   0.23339   0.72730 
C          C       0.75077   0.20339   0.78590 
C          C       0.72373   0.18111   0.80179 
H          H       0.65634   0.22467   0.66505 
H          H       0.77616   0.19775   0.81911 
H          H       0.73011   0.15963   0.84460 
C          C       0.81818   0.30561   0.69730 
C          C       0.82742   0.27580   0.64167 
C          C       0.80278   0.25136   0.64936 
C          C       0.76823   0.25686   0.71200 
N          N       0.75997   0.28613   0.76082 
C          C       0.78319   0.31011   0.75605 
H          H       0.85235   0.27184   0.59578 
H          H       0.81005   0.22991   0.60837 
H          H       0.77479   0.33123   0.79587 
C          C       0.31170   0.81158   0.75873 
C          C       0.31855   0.78156   0.69892 
N          N       0.29195   0.76048   0.68658 
C          C       0.25756   0.76661   0.72730 
C          C       0.24926   0.79661   0.78590 
C          C       0.27630   0.81888   0.80179 
H          H       0.34368   0.77533   0.66505 
H          H       0.22387   0.80225   0.81911 
H          H       0.26991   0.84037   0.84460 
