data_crystal
 
_cell_length_a    41.19810
_cell_length_b    41.19810
_cell_length_c    6.99980
_cell_angle_alpha 90.00000
_cell_angle_beta  90.00000
_cell_angle_gamma 120.00000
 
_symmetry_space_group_name_Hall 'P 1'
_symmetry_space_group_name_H-M  'P 1'
 
loop_
_symmetry_equiv_pos_as_xyz
 'x,y,z' 
 
loop_
_atom_site_label
_atom_site_type_symbol
_atom_site_fract_x
_atom_site_fract_y
_atom_site_fract_z
_atom_site_charge
C          C       0.70219   0.33473   0.25000   0.0000000000
C          C       0.70071   0.36892   0.25000   0.0000000000
C          C       0.73533   0.40378   0.25000   0.0000000000
C          C       0.73820   0.33743   0.25000   0.0000000000
C          C       0.76974   0.40492   0.25000   0.0000000000
C          C       0.77116   0.37212   0.25000   0.0000000000
C          C       0.66822   0.29929   0.25000   0.0000000000
C          C       0.63255   0.29781   0.25000   0.0000000000
C          C       0.59923   0.26180   0.25000   0.0000000000
C          C       0.66845   0.26467   0.25000   0.0000000000
C          C       0.60096   0.22884   0.25000   0.0000000000
C          C       0.63519   0.23026   0.25000   0.0000000000
C          C       0.66527   0.36745   0.25000   0.0000000000
C          C       0.63108   0.33178   0.25000   0.0000000000
C          C       0.59622   0.33154   0.25000   0.0000000000
C          C       0.66257   0.40077   0.25000   0.0000000000
C          C       0.59508   0.36481   0.25000   0.0000000000
C          C       0.62788   0.39904   0.25000   0.0000000000
C          C       0.29781   0.66527   0.25000   0.0000000000
C          C       0.29929   0.63108   0.25000   0.0000000000
C          C       0.26467   0.59622   0.25000   0.0000000000
C          C       0.26180   0.66257   0.25000   0.0000000000
C          C       0.23026   0.59508   0.25000   0.0000000000
C          C       0.22884   0.62788   0.25000   0.0000000000
C          C       0.33178   0.70071   0.25000   0.0000000000
C          C       0.36745   0.70219   0.25000   0.0000000000
C          C       0.40077   0.73820   0.25000   0.0000000000
C          C       0.33154   0.73533   0.25000   0.0000000000
C          C       0.39904   0.77116   0.25000   0.0000000000
C          C       0.36481   0.76974   0.25000   0.0000000000
C          C       0.33473   0.63255   0.25000   0.0000000000
C          C       0.36892   0.66822   0.25000   0.0000000000
C          C       0.40378   0.66845   0.25000   0.0000000000
C          C       0.33743   0.59923   0.25000   0.0000000000
C          C       0.40492   0.63519   0.25000   0.0000000000
C          C       0.37212   0.60096   0.25000   0.0000000000
O          O       0.80695   0.37943   0.25000   0.0000000000
O          O       0.63061   0.19546   0.25000   0.0000000000
O          O       0.62057   0.42753   0.25000   0.0000000000
O          O       0.80454   0.43516   0.25000   0.0000000000
O          O       0.57247   0.19305   0.25000   0.0000000000
O          O       0.56484   0.36939   0.25000   0.0000000000
O          O       0.19305   0.62057   0.25000   0.0000000000
O          O       0.36939   0.80454   0.25000   0.0000000000
O          O       0.37943   0.57247   0.25000   0.0000000000
O          O       0.19546   0.56484   0.25000   0.0000000000
O          O       0.42753   0.80695   0.25000   0.0000000000
O          O       0.43516   0.63061   0.25000   0.0000000000
B          B       0.82921   0.41977   0.25000   0.0000000000
B          B       0.58023   0.40944   0.25000   0.0000000000
B          B       0.59056   0.17079   0.25000   0.0000000000
B          B       0.17079   0.58023   0.25000   0.0000000000
B          B       0.41977   0.59056   0.25000   0.0000000000
B          B       0.40944   0.82921   0.25000   0.0000000000
H          H       0.73708   0.42924   0.25000   0.0000000000
H          H       0.57292   0.25797   0.25000   0.0000000000
H          H       0.57076   0.30784   0.25000   0.0000000000
H          H       0.74203   0.31494   0.25000   0.0000000000
H          H       0.69216   0.26292   0.25000   0.0000000000
H          H       0.68506   0.42708   0.25000   0.0000000000
H          H       0.26292   0.57076   0.25000   0.0000000000
H          H       0.42708   0.74203   0.25000   0.0000000000
H          H       0.42924   0.69216   0.25000   0.0000000000
H          H       0.25797   0.68506   0.25000   0.0000000000
H          H       0.30784   0.73708   0.25000   0.0000000000
H          H       0.31494   0.57292   0.25000   0.0000000000
C          C       0.12913   0.55808   0.25000   0.0000000000
C          C       0.10785   0.57632   0.25000   0.0000000000
C          C       0.11034   0.51854   0.25000   0.0000000000
C          C       0.06845   0.55535   0.25000   0.0000000000
C          C       0.07094   0.49761   0.25000   0.0000000000
C          C       0.04961   0.51575   0.25000   0.0000000000
N          N       0.01189   0.49403   0.25000   0.0000000000
C          C       0.44192   0.57105   0.25000   0.0000000000
C          C       0.55808   0.42895   0.25000   0.0000000000
C          C       0.42368   0.53153   0.25000   0.0000000000
C          C       0.48146   0.59180   0.25000   0.0000000000
C          C       0.57632   0.46847   0.25000   0.0000000000
C          C       0.51854   0.40820   0.25000   0.0000000000
C          C       0.44464   0.51309   0.25000   0.0000000000
C          C       0.50239   0.57333   0.25000   0.0000000000
C          C       0.55535   0.48691   0.25000   0.0000000000
C          C       0.49761   0.42667   0.25000   0.0000000000
C          C       0.48425   0.53386   0.25000   0.0000000000
C          C       0.51575   0.46614   0.25000   0.0000000000
N          N       0.49403   0.48214   0.25000   0.0000000000
N          N       0.50597   0.51786   0.25000   0.0000000000
C          C       0.42895   0.87087   0.25000   0.0000000000
C          C       0.40820   0.88965   0.25000   0.0000000000
C          C       0.46847   0.89215   0.25000   0.0000000000
C          C       0.42667   0.92906   0.25000   0.0000000000
C          C       0.48691   0.93155   0.25000   0.0000000000
C          C       0.46614   0.95039   0.25000   0.0000000000
N          N       0.48214   0.98811   0.25000   0.0000000000
C          C       0.87087   0.44192   0.25000   0.0000000000
C          C       0.89215   0.42368   0.25000   0.0000000000
C          C       0.88965   0.48146   0.25000   0.0000000000
C          C       0.93155   0.44464   0.25000   0.0000000000
C          C       0.92906   0.50239   0.25000   0.0000000000
C          C       0.95039   0.48425   0.25000   0.0000000000
N          N       0.98811   0.50597   0.25000   0.0000000000
C          C       0.57105   0.12913   0.25000   0.0000000000
C          C       0.59180   0.11034   0.25000   0.0000000000
C          C       0.53153   0.10785   0.25000   0.0000000000
C          C       0.57333   0.07094   0.25000   0.0000000000
C          C       0.51309   0.06845   0.25000   0.0000000000
C          C       0.53386   0.04961   0.25000   0.0000000000
N          N       0.51786   0.01189   0.25000   0.0000000000
H          H       0.12076   0.60495   0.25000   0.0000000000
H          H       0.12508   0.50461   0.25000   0.0000000000
H          H       0.05366   0.56922   0.25000   0.0000000000
H          H       0.05789   0.46896   0.25000   0.0000000000
H          H       0.37952   0.87491   0.25000   0.0000000000
H          H       0.48419   0.87924   0.25000   0.0000000000
H          H       0.41106   0.94211   0.25000   0.0000000000
H          H       0.51556   0.94634   0.25000   0.0000000000
H          H       0.39505   0.51581   0.25000   0.0000000000
H          H       0.49539   0.62048   0.25000   0.0000000000
H          H       0.60495   0.48419   0.25000   0.0000000000
H          H       0.50461   0.37952   0.25000   0.0000000000
H          H       0.43078   0.48444   0.25000   0.0000000000
H          H       0.53104   0.58894   0.25000   0.0000000000
H          H       0.56922   0.51556   0.25000   0.0000000000
H          H       0.46896   0.41106   0.25000   0.0000000000
H          H       0.87924   0.39505   0.25000   0.0000000000
H          H       0.87491   0.49539   0.25000   0.0000000000
H          H       0.94634   0.43078   0.25000   0.0000000000
H          H       0.94211   0.53104   0.25000   0.0000000000
H          H       0.62048   0.12508   0.25000   0.0000000000
H          H       0.51581   0.12076   0.25000   0.0000000000
H          H       0.58894   0.05789   0.25000   0.0000000000
H          H       0.48444   0.05366   0.25000   0.0000000000
C          C       0.70219   0.33473   0.75000   0.0000000000
C          C       0.70071   0.36892   0.75000   0.0000000000
C          C       0.73533   0.40378   0.75000   0.0000000000
C          C       0.73820   0.33743   0.75000   0.0000000000
C          C       0.76974   0.40492   0.75000   0.0000000000
C          C       0.77116   0.37212   0.75000   0.0000000000
C          C       0.66822   0.29929   0.75000   0.0000000000
C          C       0.63255   0.29781   0.75000   0.0000000000
C          C       0.59923   0.26180   0.75000   0.0000000000
C          C       0.66845   0.26467   0.75000   0.0000000000
C          C       0.60096   0.22884   0.75000   0.0000000000
C          C       0.63519   0.23026   0.75000   0.0000000000
C          C       0.66527   0.36745   0.75000   0.0000000000
C          C       0.63108   0.33178   0.75000   0.0000000000
C          C       0.59622   0.33154   0.75000   0.0000000000
C          C       0.66257   0.40077   0.75000   0.0000000000
C          C       0.59508   0.36481   0.75000   0.0000000000
C          C       0.62788   0.39904   0.75000   0.0000000000
C          C       0.29781   0.66527   0.75000   0.0000000000
C          C       0.29929   0.63108   0.75000   0.0000000000
C          C       0.26467   0.59622   0.75000   0.0000000000
C          C       0.26180   0.66257   0.75000   0.0000000000
C          C       0.23026   0.59508   0.75000   0.0000000000
C          C       0.22884   0.62788   0.75000   0.0000000000
C          C       0.33178   0.70071   0.75000   0.0000000000
C          C       0.36745   0.70219   0.75000   0.0000000000
C          C       0.40077   0.73820   0.75000   0.0000000000
C          C       0.33154   0.73533   0.75000   0.0000000000
C          C       0.39904   0.77116   0.75000   0.0000000000
C          C       0.36481   0.76974   0.75000   0.0000000000
C          C       0.33473   0.63255   0.75000   0.0000000000
C          C       0.36892   0.66822   0.75000   0.0000000000
C          C       0.40378   0.66845   0.75000   0.0000000000
C          C       0.33743   0.59923   0.75000   0.0000000000
C          C       0.40492   0.63519   0.75000   0.0000000000
C          C       0.37212   0.60096   0.75000   0.0000000000
O          O       0.80695   0.37943   0.75000   0.0000000000
O          O       0.63061   0.19546   0.75000   0.0000000000
O          O       0.62057   0.42753   0.75000   0.0000000000
O          O       0.80454   0.43516   0.75000   0.0000000000
O          O       0.57247   0.19305   0.75000   0.0000000000
O          O       0.56484   0.36939   0.75000   0.0000000000
O          O       0.19305   0.62057   0.75000   0.0000000000
O          O       0.36939   0.80454   0.75000   0.0000000000
O          O       0.37943   0.57247   0.75000   0.0000000000
O          O       0.19546   0.56484   0.75000   0.0000000000
O          O       0.42753   0.80695   0.75000   0.0000000000
O          O       0.43516   0.63061   0.75000   0.0000000000
B          B       0.82921   0.41977   0.75000   0.0000000000
B          B       0.58023   0.40944   0.75000   0.0000000000
B          B       0.59056   0.17079   0.75000   0.0000000000
B          B       0.17079   0.58023   0.75000   0.0000000000
B          B       0.41977   0.59056   0.75000   0.0000000000
B          B       0.40944   0.82921   0.75000   0.0000000000
H          H       0.73708   0.42924   0.75000   0.0000000000
H          H       0.57292   0.25797   0.75000   0.0000000000
H          H       0.57076   0.30784   0.75000   0.0000000000
H          H       0.74203   0.31494   0.75000   0.0000000000
H          H       0.69216   0.26292   0.75000   0.0000000000
H          H       0.68506   0.42708   0.75000   0.0000000000
H          H       0.26292   0.57076   0.75000   0.0000000000
H          H       0.42708   0.74203   0.75000   0.0000000000
H          H       0.42924   0.69216   0.75000   0.0000000000
H          H       0.25797   0.68506   0.75000   0.0000000000
H          H       0.30784   0.73708   0.75000   0.0000000000
H          H       0.31494   0.57292   0.75000   0.0000000000
C          C       0.12913   0.55808   0.75000   0.0000000000
C          C       0.10785   0.57632   0.75000   0.0000000000
C          C       0.11034   0.51854   0.75000   0.0000000000
C          C       0.06845   0.55535   0.75000   0.0000000000
C          C       0.07094   0.49761   0.75000   0.0000000000
C          C       0.04961   0.51575   0.75000   0.0000000000
N          N       0.01189   0.49403   0.75000   0.0000000000
C          C       0.44192   0.57105   0.75000   0.0000000000
C          C       0.55808   0.42895   0.75000   0.0000000000
C          C       0.42368   0.53153   0.75000   0.0000000000
C          C       0.48146   0.59180   0.75000   0.0000000000
C          C       0.57632   0.46847   0.75000   0.0000000000
C          C       0.51854   0.40820   0.75000   0.0000000000
C          C       0.44464   0.51309   0.75000   0.0000000000
C          C       0.50239   0.57333   0.75000   0.0000000000
C          C       0.55535   0.48691   0.75000   0.0000000000
C          C       0.49761   0.42667   0.75000   0.0000000000
C          C       0.48425   0.53386   0.75000   0.0000000000
C          C       0.51575   0.46614   0.75000   0.0000000000
N          N       0.49403   0.48214   0.75000   0.0000000000
N          N       0.50597   0.51786   0.75000   0.0000000000
C          C       0.42895   0.87087   0.75000   0.0000000000
C          C       0.40820   0.88965   0.75000   0.0000000000
C          C       0.46847   0.89215   0.75000   0.0000000000
C          C       0.42667   0.92906   0.75000   0.0000000000
C          C       0.48691   0.93155   0.75000   0.0000000000
C          C       0.46614   0.95039   0.75000   0.0000000000
N          N       0.48214   0.98811   0.75000   0.0000000000
C          C       0.87087   0.44192   0.75000   0.0000000000
C          C       0.89215   0.42368   0.75000   0.0000000000
C          C       0.88965   0.48146   0.75000   0.0000000000
C          C       0.93155   0.44464   0.75000   0.0000000000
C          C       0.92906   0.50239   0.75000   0.0000000000
C          C       0.95039   0.48425   0.75000   0.0000000000
N          N       0.98811   0.50597   0.75000   0.0000000000
C          C       0.57105   0.12913   0.75000   0.0000000000
C          C       0.59180   0.11034   0.75000   0.0000000000
C          C       0.53153   0.10785   0.75000   0.0000000000
C          C       0.57333   0.07094   0.75000   0.0000000000
C          C       0.51309   0.06845   0.75000   0.0000000000
C          C       0.53386   0.04961   0.75000   0.0000000000
N          N       0.51786   0.01189   0.75000   0.0000000000
H          H       0.12076   0.60495   0.75000   0.0000000000
H          H       0.12508   0.50461   0.75000   0.0000000000
H          H       0.05366   0.56922   0.75000   0.0000000000
H          H       0.05789   0.46896   0.75000   0.0000000000
H          H       0.37952   0.87491   0.75000   0.0000000000
H          H       0.48419   0.87924   0.75000   0.0000000000
H          H       0.41106   0.94211   0.75000   0.0000000000
H          H       0.51556   0.94634   0.75000   0.0000000000
H          H       0.39505   0.51581   0.75000   0.0000000000
H          H       0.49539   0.62048   0.75000   0.0000000000
H          H       0.60495   0.48419   0.75000   0.0000000000
H          H       0.50461   0.37952   0.75000   0.0000000000
H          H       0.43078   0.48444   0.75000   0.0000000000
H          H       0.53104   0.58894   0.75000   0.0000000000
H          H       0.56922   0.51556   0.75000   0.0000000000
H          H       0.46896   0.41106   0.75000   0.0000000000
H          H       0.87924   0.39505   0.75000   0.0000000000
H          H       0.87491   0.49539   0.75000   0.0000000000
H          H       0.94634   0.43078   0.75000   0.0000000000
H          H       0.94211   0.53104   0.75000   0.0000000000
H          H       0.62048   0.12508   0.75000   0.0000000000
H          H       0.51581   0.12076   0.75000   0.0000000000
H          H       0.58894   0.05789   0.75000   0.0000000000
H          H       0.48444   0.05366   0.75000   0.0000000000
