data_crystal
 
_cell_length_a    41.19810
_cell_length_b    41.19810
_cell_length_c    3.49990
_cell_angle_alpha 90.00000
_cell_angle_beta  90.00000
_cell_angle_gamma 120.00000
 
_symmetry_space_group_name_Hall 'P 1'
_symmetry_space_group_name_H-M  'P 1'
 
loop_
_symmetry_equiv_pos_as_xyz
 'x,y,z' 
 
loop_
_atom_site_label
_atom_site_type_symbol
_atom_site_fract_x
_atom_site_fract_y
_atom_site_fract_z
_atom_site_charge
C          C       0.70219   0.33473   0.50000   0.0000000000
C          C       0.70071   0.36892   0.50000   0.0000000000
C          C       0.73533   0.40378   0.50000   0.0000000000
C          C       0.73820   0.33743   0.50000   0.0000000000
C          C       0.76974   0.40492   0.50000   0.0000000000
C          C       0.77116   0.37212   0.50000   0.0000000000
C          C       0.66822   0.29929   0.50000   0.0000000000
C          C       0.63255   0.29781   0.50000   0.0000000000
C          C       0.59923   0.26180   0.50000   0.0000000000
C          C       0.66845   0.26467   0.50000   0.0000000000
C          C       0.60096   0.22884   0.50000   0.0000000000
C          C       0.63519   0.23026   0.50000   0.0000000000
C          C       0.66527   0.36745   0.50000   0.0000000000
C          C       0.63108   0.33178   0.50000   0.0000000000
C          C       0.59622   0.33154   0.50000   0.0000000000
C          C       0.66257   0.40077   0.50000   0.0000000000
C          C       0.59508   0.36481   0.50000   0.0000000000
C          C       0.62788   0.39904   0.50000   0.0000000000
C          C       0.29781   0.66527   0.50000   0.0000000000
C          C       0.29929   0.63108   0.50000   0.0000000000
C          C       0.26467   0.59622   0.50000   0.0000000000
C          C       0.26180   0.66257   0.50000   0.0000000000
C          C       0.23026   0.59508   0.50000   0.0000000000
C          C       0.22884   0.62788   0.50000   0.0000000000
C          C       0.33178   0.70071   0.50000   0.0000000000
C          C       0.36745   0.70219   0.50000   0.0000000000
C          C       0.40077   0.73820   0.50000   0.0000000000
C          C       0.33154   0.73533   0.50000   0.0000000000
C          C       0.39904   0.77116   0.50000   0.0000000000
C          C       0.36481   0.76974   0.50000   0.0000000000
C          C       0.33473   0.63255   0.50000   0.0000000000
C          C       0.36892   0.66822   0.50000   0.0000000000
C          C       0.40378   0.66845   0.50000   0.0000000000
C          C       0.33743   0.59923   0.50000   0.0000000000
C          C       0.40492   0.63519   0.50000   0.0000000000
C          C       0.37212   0.60096   0.50000   0.0000000000
O          O       0.80695   0.37943   0.50000   0.0000000000
O          O       0.63061   0.19546   0.50000   0.0000000000
O          O       0.62057   0.42753   0.50000   0.0000000000
O          O       0.80454   0.43516   0.50000   0.0000000000
O          O       0.57247   0.19305   0.50000   0.0000000000
O          O       0.56484   0.36939   0.50000   0.0000000000
O          O       0.19305   0.62057   0.50000   0.0000000000
O          O       0.36939   0.80454   0.50000   0.0000000000
O          O       0.37943   0.57247   0.50000   0.0000000000
O          O       0.19546   0.56484   0.50000   0.0000000000
O          O       0.42753   0.80695   0.50000   0.0000000000
O          O       0.43516   0.63061   0.50000   0.0000000000
B          B       0.82921   0.41977   0.50000   0.0000000000
B          B       0.58023   0.40944   0.50000   0.0000000000
B          B       0.59056   0.17079   0.50000   0.0000000000
B          B       0.17079   0.58023   0.50000   0.0000000000
B          B       0.41977   0.59056   0.50000   0.0000000000
B          B       0.40944   0.82921   0.50000   0.0000000000
H          H       0.73708   0.42924   0.50000   0.0000000000
H          H       0.57292   0.25797   0.50000   0.0000000000
H          H       0.57076   0.30784   0.50000   0.0000000000
H          H       0.74203   0.31494   0.50000   0.0000000000
H          H       0.69216   0.26292   0.50000   0.0000000000
H          H       0.68506   0.42708   0.50000   0.0000000000
H          H       0.26292   0.57076   0.50000   0.0000000000
H          H       0.42708   0.74203   0.50000   0.0000000000
H          H       0.42924   0.69216   0.50000   0.0000000000
H          H       0.25797   0.68506   0.50000   0.0000000000
H          H       0.30784   0.73708   0.50000   0.0000000000
H          H       0.31494   0.57292   0.50000   0.0000000000
C          C       0.12913   0.55808   0.50000   0.0000000000
C          C       0.10785   0.57632   0.50000   0.0000000000
C          C       0.11034   0.51854   0.50000   0.0000000000
C          C       0.06845   0.55535   0.50000   0.0000000000
C          C       0.07094   0.49761   0.50000   0.0000000000
C          C       0.04961   0.51575   0.50000   0.0000000000
N          N       0.01189   0.49403   0.50000   0.0000000000
C          C       0.44192   0.57105   0.50000   0.0000000000
C          C       0.55808   0.42895   0.50000   0.0000000000
C          C       0.42368   0.53153   0.50000   0.0000000000
C          C       0.48146   0.59180   0.50000   0.0000000000
C          C       0.57632   0.46847   0.50000   0.0000000000
C          C       0.51854   0.40820   0.50000   0.0000000000
C          C       0.44464   0.51309   0.50000   0.0000000000
C          C       0.50239   0.57333   0.50000   0.0000000000
C          C       0.55535   0.48691   0.50000   0.0000000000
C          C       0.49761   0.42667   0.50000   0.0000000000
C          C       0.48425   0.53386   0.50000   0.0000000000
C          C       0.51575   0.46614   0.50000   0.0000000000
N          N       0.49403   0.48214   0.50000   0.0000000000
N          N       0.50597   0.51786   0.50000   0.0000000000
C          C       0.42895   0.87087   0.50000   0.0000000000
C          C       0.40820   0.88965   0.50000   0.0000000000
C          C       0.46847   0.89215   0.50000   0.0000000000
C          C       0.42667   0.92906   0.50000   0.0000000000
C          C       0.48691   0.93155   0.50000   0.0000000000
C          C       0.46614   0.95039   0.50000   0.0000000000
N          N       0.48214   0.98811   0.50000   0.0000000000
C          C       0.87087   0.44192   0.50000   0.0000000000
C          C       0.89215   0.42368   0.50000   0.0000000000
C          C       0.88965   0.48146   0.50000   0.0000000000
C          C       0.93155   0.44464   0.50000   0.0000000000
C          C       0.92906   0.50239   0.50000   0.0000000000
C          C       0.95039   0.48425   0.50000   0.0000000000
N          N       0.98811   0.50597   0.50000   0.0000000000
C          C       0.57105   0.12913   0.50000   0.0000000000
C          C       0.59180   0.11034   0.50000   0.0000000000
C          C       0.53153   0.10785   0.50000   0.0000000000
C          C       0.57333   0.07094   0.50000   0.0000000000
C          C       0.51309   0.06845   0.50000   0.0000000000
C          C       0.53386   0.04961   0.50000   0.0000000000
N          N       0.51786   0.01189   0.50000   0.0000000000
H          H       0.12076   0.60495   0.50000   0.0000000000
H          H       0.12508   0.50461   0.50000   0.0000000000
H          H       0.05366   0.56922   0.50000   0.0000000000
H          H       0.05789   0.46896   0.50000   0.0000000000
H          H       0.37952   0.87491   0.50000   0.0000000000
H          H       0.48419   0.87924   0.50000   0.0000000000
H          H       0.41106   0.94211   0.50000   0.0000000000
H          H       0.51556   0.94634   0.50000   0.0000000000
H          H       0.39505   0.51581   0.50000   0.0000000000
H          H       0.49539   0.62048   0.50000   0.0000000000
H          H       0.60495   0.48419   0.50000   0.0000000000
H          H       0.50461   0.37952   0.50000   0.0000000000
H          H       0.43078   0.48444   0.50000   0.0000000000
H          H       0.53104   0.58894   0.50000   0.0000000000
H          H       0.56922   0.51556   0.50000   0.0000000000
H          H       0.46896   0.41106   0.50000   0.0000000000
H          H       0.87924   0.39505   0.50000   0.0000000000
H          H       0.87491   0.49539   0.50000   0.0000000000
H          H       0.94634   0.43078   0.50000   0.0000000000
H          H       0.94211   0.53104   0.50000   0.0000000000
H          H       0.62048   0.12508   0.50000   0.0000000000
H          H       0.51581   0.12076   0.50000   0.0000000000
H          H       0.58894   0.05789   0.50000   0.0000000000
H          H       0.48444   0.05366   0.50000   0.0000000000
