data_crystal
 
_cell_length_a    31.50000
_cell_length_b    31.50000
_cell_length_c    3.30000
_cell_angle_alpha 90.00000
_cell_angle_beta  90.00000
_cell_angle_gamma 120.00000
 
_symmetry_space_group_name_Hall 'P 1'
_symmetry_space_group_name_H-M  'P 1'
 
loop_
_symmetry_equiv_pos_as_xyz
 'x,y,z' 
 
loop_
_atom_site_label
_atom_site_type_symbol
_atom_site_fract_x
_atom_site_fract_y
_atom_site_fract_z
_atom_site_charge
O          O       0.29695   0.57697   0.00000   0.0000000000
N          N       0.38245   0.58505   0.00000   0.0000000000
C          C       0.31382   0.61757   0.00000   0.0000000000
C          C       0.39342   0.63145   0.00000   0.0000000000
C          C       0.41468   0.56990   0.00000   0.0000000000
C          C       0.46145   0.59947   0.00000   0.0000000000
C          C       0.49111   0.58277   0.00000   0.0000000000
C          C       0.47494   0.53664   0.00000   0.0000000000
C          C       0.42853   0.50701   0.00000   0.0000000000
C          C       0.39878   0.52354   0.00000   0.0000000000
C          C       0.36359   0.64675   0.00000   0.0000000000
H          H       0.42849   0.65656   0.00000   0.0000000000
H          H       0.47589   0.63531   0.00000   0.0000000000
H          H       0.34922   0.55946   0.00000   0.0000000000
H          H       0.36308   0.50007   0.00000   0.0000000000
H          H       0.52692   0.60571   0.00000   0.0000000000
H          H       0.41558   0.47120   0.00000   0.0000000000
O          O       0.42303   0.71998   0.00000   0.0000000000
N          N       0.41495   0.79740   0.00000   0.0000000000
C          C       0.38243   0.69625   0.00000   0.0000000000
C          C       0.36855   0.76197   0.00000   0.0000000000
C          C       0.43010   0.84478   0.00000   0.0000000000
C          C       0.40053   0.86198   0.00000   0.0000000000
C          C       0.41723   0.90834   0.00000   0.0000000000
C          C       0.46336   0.93830   0.00000   0.0000000000
C          C       0.49299   0.92152   0.00000   0.0000000000
C          C       0.47646   0.87524   0.00000   0.0000000000
C          C       0.35325   0.71684   0.00000   0.0000000000
H          H       0.34344   0.77193   0.00000   0.0000000000
H          H       0.36469   0.84058   0.00000   0.0000000000
H          H       0.44054   0.78976   0.00000   0.0000000000
H          H       0.49993   0.86301   0.00000   0.0000000000
H          H       0.39429   0.92121   0.00000   0.0000000000
H          H       0.52880   0.94438   0.00000   0.0000000000
O          O       0.28002   0.70305   0.00000   0.0000000000
N          N       0.20260   0.61755   0.00000   0.0000000000
C          C       0.30375   0.68618   0.00000   0.0000000000
C          C       0.23803   0.60658   0.00000   0.0000000000
C          C       0.15522   0.58532   0.00000   0.0000000000
C          C       0.13802   0.53855   0.00000   0.0000000000
C          C       0.09166   0.50889   0.00000   0.0000000000
C          C       0.06170   0.52506   0.00000   0.0000000000
C          C       0.07848   0.57147   0.00000   0.0000000000
C          C       0.12476   0.60122   0.00000   0.0000000000
C          C       0.28316   0.63641   0.00000   0.0000000000
H          H       0.22807   0.57151   0.00000   0.0000000000
H          H       0.15942   0.52411   0.00000   0.0000000000
H          H       0.21024   0.65078   0.00000   0.0000000000
H          H       0.13699   0.63692   0.00000   0.0000000000
H          H       0.07879   0.47308   0.00000   0.0000000000
H          H       0.05562   0.58442   0.00000   0.0000000000
O          O       0.70305   0.42303   0.00000   0.0000000000
N          N       0.61755   0.41495   0.00000   0.0000000000
C          C       0.68618   0.38243   0.00000   0.0000000000
C          C       0.60658   0.36855   0.00000   0.0000000000
C          C       0.58532   0.43010   0.00000   0.0000000000
C          C       0.53855   0.40053   0.00000   0.0000000000
C          C       0.50889   0.41723   0.00000   0.0000000000
C          C       0.52506   0.46336   0.00000   0.0000000000
C          C       0.57147   0.49299   0.00000   0.0000000000
C          C       0.60122   0.47646   0.00000   0.0000000000
C          C       0.63641   0.35325   0.00000   0.0000000000
H          H       0.57151   0.34344   0.00000   0.0000000000
H          H       0.52411   0.36469   0.00000   0.0000000000
H          H       0.65078   0.44054   0.00000   0.0000000000
H          H       0.63692   0.49993   0.00000   0.0000000000
H          H       0.47308   0.39429   0.00000   0.0000000000
H          H       0.58442   0.52880   0.00000   0.0000000000
O          O       0.57697   0.28002   0.00000   0.0000000000
N          N       0.58505   0.20260   0.00000   0.0000000000
C          C       0.61757   0.30375   0.00000   0.0000000000
C          C       0.63145   0.23803   0.00000   0.0000000000
C          C       0.56990   0.15522   0.00000   0.0000000000
C          C       0.59947   0.13802   0.00000   0.0000000000
C          C       0.58277   0.09166   0.00000   0.0000000000
C          C       0.53664   0.06170   0.00000   0.0000000000
C          C       0.50701   0.07848   0.00000   0.0000000000
C          C       0.52354   0.12476   0.00000   0.0000000000
C          C       0.64675   0.28316   0.00000   0.0000000000
H          H       0.65656   0.22807   0.00000   0.0000000000
H          H       0.63531   0.15942   0.00000   0.0000000000
H          H       0.55946   0.21024   0.00000   0.0000000000
H          H       0.50007   0.13699   0.00000   0.0000000000
H          H       0.60571   0.07879   0.00000   0.0000000000
H          H       0.47120   0.05562   0.00000   0.0000000000
O          O       0.71998   0.29695   0.00000   0.0000000000
N          N       0.79740   0.38245   0.00000   0.0000000000
C          C       0.69625   0.31382   0.00000   0.0000000000
C          C       0.76197   0.39342   0.00000   0.0000000000
C          C       0.84478   0.41468   0.00000   0.0000000000
C          C       0.86198   0.46145   0.00000   0.0000000000
C          C       0.90834   0.49111   0.00000   0.0000000000
C          C       0.93830   0.47494   0.00000   0.0000000000
C          C       0.92152   0.42853   0.00000   0.0000000000
C          C       0.87524   0.39878   0.00000   0.0000000000
C          C       0.71684   0.36359   0.00000   0.0000000000
H          H       0.77193   0.42849   0.00000   0.0000000000
H          H       0.84058   0.47589   0.00000   0.0000000000
H          H       0.78976   0.34922   0.00000   0.0000000000
H          H       0.86301   0.36308   0.00000   0.0000000000
H          H       0.92121   0.52692   0.00000   0.0000000000
H          H       0.94438   0.41558   0.00000   0.0000000000
N          N       0.50627   0.52081   0.00000   0.0000000000
N          N       0.47919   0.98546   0.00000   0.0000000000
N          N       0.01454   0.49373   0.00000   0.0000000000
N          N       0.49373   0.47919   0.00000   0.0000000000
N          N       0.52081   0.01454   0.00000   0.0000000000
N          N       0.98546   0.50627   0.00000   0.0000000000
