data_crystal
 
_cell_length_a    24.17790
_cell_length_b    24.17800
_cell_length_c    3.40000
_cell_angle_alpha 90.00000
_cell_angle_beta  90.00000
_cell_angle_gamma 59.99990
 
_symmetry_space_group_name_Hall 'P 1'
_symmetry_space_group_name_H-M  'P 1'
 
loop_
_symmetry_equiv_pos_as_xyz
 'x,y,z' 
 
loop_
_atom_site_label
_atom_site_type_symbol
_atom_site_fract_x
_atom_site_fract_y
_atom_site_fract_z
_atom_site_charge
C          C       0.41079   0.39725   1.46379   0.0000000000
N          N       0.39427   0.46627   1.46310   0.0000000000
C          C       0.44672   0.48283   1.46625   0.0000000000
C          C       0.42946   0.55335   1.47160   0.0000000000
C          C       0.48279   0.57052   1.47694   0.0000000000
H          H       0.46293   0.35763   1.46528   0.0000000000
H          H       0.37740   0.59266   1.47188   0.0000000000
H          H       0.47005   0.62279   1.48155   0.0000000000
C          C       0.58923   0.60277   1.47692   0.0000000000
N          N       0.60572   0.53375   1.47677   0.0000000000
C          C       0.55327   0.51716   1.47521   0.0000000000
C          C       0.57054   0.44663   1.47016   0.0000000000
C          C       0.51721   0.42946   1.46515   0.0000000000
H          H       0.53710   0.64242   1.47732   0.0000000000
H          H       0.62260   0.40732   1.46942   0.0000000000
H          H       0.52994   0.37720   1.46053   0.0000000000
C          C       0.19202   0.41073   1.45810   0.0000000000
N          N       0.13952   0.39421   1.45764   0.0000000000
C          C       0.07050   0.44666   1.46169   0.0000000000
C          C       0.01724   0.42940   1.46726   0.0000000000
C          C       0.94674   0.48273   1.47353   0.0000000000
H          H       0.17950   0.46287   1.46011   0.0000000000
H          H       0.02999   0.37734   1.46704   0.0000000000
H          H       0.90722   0.46999   1.47830   0.0000000000
C          C       0.80806   0.58916   1.47532   0.0000000000
N          N       0.86059   0.60566   1.47495   0.0000000000
C          C       0.92962   0.55321   1.47248   0.0000000000
C          C       0.98288   0.57048   1.46721   0.0000000000
C          C       0.05338   0.51715   1.46128   0.0000000000
H          H       0.82053   0.53704   1.47521   0.0000000000
H          H       0.97014   0.62254   1.46698   0.0000000000
H          H       0.09291   0.52988   1.45649   0.0000000000
C          C       0.39730   0.19196   1.46423   0.0000000000
N          N       0.46633   0.13946   1.46286   0.0000000000
C          C       0.48289   0.07044   1.46624   0.0000000000
C          C       0.55341   0.01718   1.47089   0.0000000000
C          C       0.57059   0.94668   1.47647   0.0000000000
H          H       0.35769   0.17944   1.46640   0.0000000000
H          H       0.59272   0.02993   1.47050   0.0000000000
H          H       0.62285   0.90716   1.48056   0.0000000000
C          C       0.60283   0.80799   1.47691   0.0000000000
N          N       0.53381   0.86053   1.47744   0.0000000000
C          C       0.51723   0.92955   1.47565   0.0000000000
C          C       0.44669   0.98282   1.47130   0.0000000000
C          C       0.42952   0.05332   1.46606   0.0000000000
H          H       0.64249   0.82047   1.47663   0.0000000000
H          H       0.40738   0.97008   1.47123   0.0000000000
H          H       0.37726   0.09285   1.46195   0.0000000000
C          C       0.63003   0.63641   1.47664   0.0000000000
C          C       0.63647   0.73356   1.47664   0.0000000000
C          C       0.73362   0.62996   1.47588   0.0000000000
C          C       0.59996   0.70323   1.47689   0.0000000000
C          C       0.70329   0.69681   1.47613   0.0000000000
C          C       0.69687   0.59989   1.47614   0.0000000000
H          H       0.72024   0.54818   1.47594   0.0000000000
H          H       0.54824   0.73158   1.47728   0.0000000000
H          H       0.73164   0.72017   1.47594   0.0000000000
C          C       0.37002   0.36358   1.46287   0.0000000000
C          C       0.36364   0.26639   1.46307   0.0000000000
C          C       0.26645   0.36996   1.46017   0.0000000000
C          C       0.40012   0.29675   1.46390   0.0000000000
C          C       0.29681   0.30312   1.46121   0.0000000000
C          C       0.30318   0.40006   1.46100   0.0000000000
H          H       0.27979   0.45178   1.46020   0.0000000000
H          H       0.45184   0.26843   1.46534   0.0000000000
H          H       0.26848   0.27973   1.46057   0.0000000000
