data_crystal

_cell_length_a    24.17790
_cell_length_b    24.17800
_cell_length_c    6.80000
_cell_angle_alpha 90.00000
_cell_angle_beta  90.00000
_cell_angle_gamma 59.99990

_space_group_name_Hall 'P 1'
_space_group_name_H-M_alt  'P 1'

loop_
_symmetry_equiv_pos_as_xyz
'x,y,z' 

loop_
_atom_site_label
_atom_site_type_symbol
_atom_site_fract_x
_atom_site_fract_y
_atom_site_fract_z
C          C       0.41079   0.39725   0.73189 
N          N       0.39427   0.46627   0.73155 
C          C       0.44672   0.48283   0.73313 
C          C       0.42946   0.55335   0.73580 
C          C       0.48279   0.57052   0.73847 
H          H       0.46293   0.35763   0.73264 
H          H       0.37740   0.59266   0.73594 
H          H       0.47005   0.62279   0.74077 
C          C       0.58923   0.60277   0.73846 
N          N       0.60572   0.53375   0.73838 
C          C       0.55327   0.51716   0.73761 
C          C       0.57054   0.44663   0.73508 
C          C       0.51721   0.42946   0.73258 
H          H       0.53710   0.64242   0.73866 
H          H       0.62260   0.40732   0.73471 
H          H       0.52994   0.37720   0.73027 
C          C       0.19202   0.41073   0.72905 
N          N       0.13952   0.39421   0.72882 
C          C       0.07050   0.44666   0.73084 
C          C       0.01724   0.42940   0.73363 
C          C       0.94674   0.48273   0.73677 
H          H       0.17950   0.46287   0.73006 
H          H       0.02999   0.37734   0.73352 
H          H       0.90722   0.46999   0.73915 
C          C       0.80806   0.58916   0.73766 
N          N       0.86059   0.60566   0.73747 
C          C       0.92962   0.55321   0.73624 
C          C       0.98288   0.57048   0.73360 
C          C       0.05338   0.51715   0.73064 
H          H       0.82053   0.53704   0.73761 
H          H       0.97014   0.62254   0.73349 
H          H       0.09291   0.52988   0.72825 
C          C       0.39730   0.19196   0.73211 
N          N       0.46633   0.13946   0.73143 
C          C       0.48289   0.07044   0.73312 
C          C       0.55341   0.01718   0.73545 
C          C       0.57059   0.94668   0.73823 
H          H       0.35769   0.17944   0.73320 
H          H       0.59272   0.02993   0.73525 
H          H       0.62285   0.90716   0.74028 
C          C       0.60283   0.80799   0.73845 
N          N       0.53381   0.86053   0.73872 
C          C       0.51723   0.92955   0.73782 
C          C       0.44669   0.98282   0.73565 
C          C       0.42952   0.05332   0.73303 
H          H       0.64249   0.82047   0.73832 
H          H       0.40738   0.97008   0.73562 
H          H       0.37726   0.09285   0.73098 
C          C       0.63003   0.63641   0.73832 
C          C       0.63647   0.73356   0.73832 
C          C       0.73362   0.62996   0.73794 
C          C       0.59996   0.70323   0.73845 
C          C       0.70329   0.69681   0.73806 
C          C       0.69687   0.59989   0.73807 
H          H       0.72024   0.54818   0.73797 
H          H       0.54824   0.73158   0.73864 
H          H       0.73164   0.72017   0.73797 
C          C       0.37002   0.36358   0.73143 
C          C       0.36364   0.26639   0.73154 
C          C       0.26645   0.36996   0.73008 
C          C       0.40012   0.29675   0.73195 
C          C       0.29681   0.30312   0.73061 
C          C       0.30318   0.40006   0.73050 
H          H       0.27979   0.45178   0.73010 
H          H       0.45184   0.26843   0.73267 
H          H       0.26848   0.27973   0.73028 
C          C       0.41079   0.39725   1.23189 
N          N       0.39427   0.46627   1.23155 
C          C       0.44672   0.48283   1.23313 
C          C       0.42946   0.55335   1.23580 
C          C       0.48279   0.57052   1.23847 
H          H       0.46293   0.35763   1.23264 
H          H       0.37740   0.59266   1.23594 
H          H       0.47005   0.62279   1.24077 
C          C       0.58923   0.60277   1.23846 
N          N       0.60572   0.53375   1.23839 
C          C       0.55327   0.51716   1.23761 
C          C       0.57054   0.44663   1.23508 
C          C       0.51721   0.42946   1.23258 
H          H       0.53710   0.64242   1.23866 
H          H       0.62260   0.40732   1.23471 
H          H       0.52994   0.37720   1.23027 
C          C       0.19202   0.41073   1.22905 
N          N       0.13952   0.39421   1.22882 
C          C       0.07050   0.44666   1.23084 
C          C       0.01724   0.42940   1.23363 
C          C       0.94674   0.48273   1.23677 
H          H       0.17950   0.46287   1.23005 
H          H       0.02999   0.37734   1.23352 
H          H       0.90722   0.46999   1.23915 
C          C       0.80806   0.58916   1.23766 
N          N       0.86059   0.60566   1.23748 
C          C       0.92962   0.55321   1.23624 
C          C       0.98288   0.57048   1.23360 
C          C       0.05338   0.51715   1.23064 
H          H       0.82053   0.53704   1.23761 
H          H       0.97014   0.62254   1.23349 
H          H       0.09291   0.52988   1.22825 
C          C       0.39730   0.19196   1.23212 
N          N       0.46633   0.13946   1.23143 
C          C       0.48289   0.07044   1.23312 
C          C       0.55341   0.01718   1.23545 
C          C       0.57059   0.94668   1.23823 
H          H       0.35769   0.17944   1.23320 
H          H       0.59272   0.02993   1.23525 
H          H       0.62285   0.90716   1.24028 
C          C       0.60283   0.80799   1.23845 
N          N       0.53381   0.86053   1.23872 
C          C       0.51723   0.92955   1.23782 
C          C       0.44669   0.98282   1.23565 
C          C       0.42952   0.05332   1.23303 
H          H       0.64249   0.82047   1.23831 
H          H       0.40738   0.97008   1.23561 
H          H       0.37726   0.09285   1.23098 
C          C       0.63003   0.63641   1.23832 
C          C       0.63647   0.73356   1.23832 
C          C       0.73362   0.62996   1.23794 
C          C       0.59996   0.70323   1.23845 
C          C       0.70329   0.69681   1.23806 
C          C       0.69687   0.59989   1.23807 
H          H       0.72024   0.54818   1.23797 
H          H       0.54824   0.73158   1.23864 
H          H       0.73164   0.72017   1.23797 
C          C       0.37002   0.36358   1.23143 
C          C       0.36364   0.26639   1.23154 
C          C       0.26645   0.36996   1.23009 
C          C       0.40012   0.29675   1.23195 
C          C       0.29681   0.30312   1.23061 
C          C       0.30318   0.40006   1.23050 
H          H       0.27979   0.45178   1.23010 
H          H       0.45184   0.26843   1.23267 
H          H       0.26848   0.27973   1.23029 
