data_MC-COF-TP-E11E22
_audit_creation_date              0000-00-00
_audit_creation_method            'LanYouShi'
_symmetry_space_group_name_H-M    'P1'
_cell_length_a                    30.1749992
_cell_length_b                    52.2719002
_cell_length_c                    3.6528001
_cell_angle_alpha                 90.0000000
_cell_angle_beta                  110.0925980
_cell_angle_gamma                 90.0000000
loop_
_atom_site_label
_atom_site_type_symbol
_atom_site_fract_x
_atom_site_fract_y
_atom_site_fract_z
_atom_site_U_iso_or_equiv
_atom_site_adp_type
_atom_site_occupancy
        C1          C  0.5232671  0.8093384  0.4712154    0.00000       Uiso       1.00
        C2          C  0.5478910  0.8331199  0.4865134    0.00000       Uiso       1.00
        C3          C  0.5958580  0.8321488  0.5010465    0.00000       Uiso       1.00
        C4          C  0.6180636  0.8088965  0.4907925    0.00000       Uiso       1.00
        C5          C  0.5940294  0.7860870  0.4657579    0.00000       Uiso       1.00
        C6          C  0.5473468  0.7860160  0.4545506    0.00000       Uiso       1.00
        C1          C  0.0232667  0.3093387  0.4712154    0.00000       Uiso       1.00
        C2          C  0.0478905  0.3331202  0.4865134    0.00000       Uiso       1.00
        C3          C  0.0958576  0.3321491  0.5010465    0.00000       Uiso       1.00
        C4          C  0.1180632  0.3088968  0.4907925    0.00000       Uiso       1.00
        C5          C  0.0940290  0.2860874  0.4657579    0.00000       Uiso       1.00
        C6          C  0.0473464  0.2860163  0.4545506    0.00000       Uiso       1.00
        C1          C  0.5232671  0.1906610  0.4712154    0.00000       Uiso       1.00
        C2          C  0.5478910  0.1668795  0.4865134    0.00000       Uiso       1.00
        C3          C  0.5958580  0.1678506  0.5010465    0.00000       Uiso       1.00
        C4          C  0.6180636  0.1911029  0.4907925    0.00000       Uiso       1.00
        C5          C  0.5940294  0.2139123  0.4657579    0.00000       Uiso       1.00
        C6          C  0.5473468  0.2139834  0.4545506    0.00000       Uiso       1.00
        C1          C  0.0232667  0.6906606  0.4712154    0.00000       Uiso       1.00
        C2          C  0.0478905  0.6668791  0.4865134    0.00000       Uiso       1.00
        C3          C  0.0958576  0.6678503  0.5010465    0.00000       Uiso       1.00
        C4          C  0.1180632  0.6911026  0.4907925    0.00000       Uiso       1.00
        C5          C  0.0940290  0.7139120  0.4657579    0.00000       Uiso       1.00
        C6          C  0.0473464  0.7139831  0.4545506    0.00000       Uiso       1.00
        O1          O  0.6216636  0.7660124  0.4543310    0.00000       Uiso       1.00
        O1          O  0.1216631  0.2660128  0.4543310    0.00000       Uiso       1.00
        O1          O  0.6216636  0.2339869  0.4543310    0.00000       Uiso       1.00
        O1          O  0.1216631  0.7339866  0.4543310    0.00000       Uiso       1.00
        B1          B  0.6660336  0.7773418  0.4749820    0.00000       Uiso       1.00
        B1          B  0.1660332  0.2773422  0.4749820    0.00000       Uiso       1.00
        B1          B  0.6660336  0.2226575  0.4749820    0.00000       Uiso       1.00
        B1          B  0.1660332  0.7226572  0.4749820    0.00000       Uiso       1.00
        O2          O  0.6625086  0.8047557  0.4985418    0.00000       Uiso       1.00
        O2          O  0.1625082  0.3047561  0.4985418    0.00000       Uiso       1.00
        O2          O  0.6625086  0.1952436  0.4985418    0.00000       Uiso       1.00
        O2          O  0.1625082  0.6952432  0.4985418    0.00000       Uiso       1.00
        C7          C  0.4758265  0.8094603  0.4701666    0.00000       Uiso       1.00
        C8          C  0.4515002  0.8333526  0.4543694    0.00000       Uiso       1.00
        C9          C  0.4514622  0.7862561  0.4873303    0.00000       Uiso       1.00
       C10          C  0.4047986  0.7865403  0.4763073    0.00000       Uiso       1.00
       C11          C  0.3810334  0.8094415  0.4512022    0.00000       Uiso       1.00
       C12          C  0.4035428  0.8325964  0.4405337    0.00000       Uiso       1.00
        C7          C  0.9758269  0.3094606  0.4701666    0.00000       Uiso       1.00
        C8          C  0.9515007  0.3333529  0.4543694    0.00000       Uiso       1.00
        C9          C  0.9514626  0.2862565  0.4873303    0.00000       Uiso       1.00
       C10          C  0.9047990  0.2865407  0.4763073    0.00000       Uiso       1.00
       C11          C  0.8810339  0.3094419  0.4512022    0.00000       Uiso       1.00
       C12          C  0.9035432  0.3325966  0.4405337    0.00000       Uiso       1.00
        C7          C  0.4758265  0.1905391  0.4701666    0.00000       Uiso       1.00
        C8          C  0.4515002  0.1666468  0.4543694    0.00000       Uiso       1.00
        C9          C  0.4514622  0.2137432  0.4873303    0.00000       Uiso       1.00
       C10          C  0.4047986  0.2134590  0.4763073    0.00000       Uiso       1.00
       C11          C  0.3810334  0.1905578  0.4512022    0.00000       Uiso       1.00
       C12          C  0.4035428  0.1674030  0.4405337    0.00000       Uiso       1.00
        C7          C  0.9758269  0.6905388  0.4701666    0.00000       Uiso       1.00
        C8          C  0.9515007  0.6666465  0.4543694    0.00000       Uiso       1.00
        C9          C  0.9514626  0.7137429  0.4873303    0.00000       Uiso       1.00
       C10          C  0.9047990  0.7134587  0.4763073    0.00000       Uiso       1.00
       C11          C  0.8810339  0.6905575  0.4512022    0.00000       Uiso       1.00
       C12          C  0.9035432  0.6674027  0.4405337    0.00000       Uiso       1.00
        O3          O  0.3365417  0.8054582  0.4437340    0.00000       Uiso       1.00
        O3          O  0.8365421  0.3054585  0.4437340    0.00000       Uiso       1.00
        O3          O  0.3365417  0.1945411  0.4437340    0.00000       Uiso       1.00
        O3          O  0.8365421  0.6945409  0.4437340    0.00000       Uiso       1.00
        B2          B  0.3327268  0.7780584  0.4674602    0.00000       Uiso       1.00
        B2          B  0.8327273  0.2780586  0.4674602    0.00000       Uiso       1.00
        B2          B  0.3327268  0.2219410  0.4674602    0.00000       Uiso       1.00
        B2          B  0.8327273  0.7219407  0.4674602    0.00000       Uiso       1.00
        O4          O  0.3769663  0.7665749  0.4880174    0.00000       Uiso       1.00
        O4          O  0.8769668  0.2665752  0.4880174    0.00000       Uiso       1.00
        O4          O  0.3769663  0.2334245  0.4880174    0.00000       Uiso       1.00
        O4          O  0.8769668  0.7334242  0.4880174    0.00000       Uiso       1.00
       C13          C  0.5242020  0.8568716  0.4831189    0.00000       Uiso       1.00
       C14          C  0.4754619  0.8569974  0.4563513    0.00000       Uiso       1.00
       C15          C  0.4524394  0.8811684  0.4356672    0.00000       Uiso       1.00
       C16          C  0.4765985  0.9041181  0.4504790    0.00000       Uiso       1.00
       C17          C  0.5236568  0.9039698  0.4849702    0.00000       Uiso       1.00
       C18          C  0.5475336  0.8809173  0.5019855    0.00000       Uiso       1.00
       C13          C  0.0242017  0.3568719  0.4831189    0.00000       Uiso       1.00
       C17          C  0.0236564  0.4039700  0.4849702    0.00000       Uiso       1.00
       C18          C  0.0475332  0.3809175  0.5019855    0.00000       Uiso       1.00
       C13          C  0.5242020  0.1431278  0.4831189    0.00000       Uiso       1.00
       C14          C  0.4754619  0.1430019  0.4563513    0.00000       Uiso       1.00
       C15          C  0.4524394  0.1188310  0.4356672    0.00000       Uiso       1.00
       C16          C  0.4765985  0.0958813  0.4504790    0.00000       Uiso       1.00
       C17          C  0.5236568  0.0960296  0.4849702    0.00000       Uiso       1.00
       C18          C  0.5475336  0.1190821  0.5019855    0.00000       Uiso       1.00
       C13          C  0.0242017  0.6431275  0.4831189    0.00000       Uiso       1.00
       C17          C  0.0236564  0.5960293  0.4849702    0.00000       Uiso       1.00
       C18          C  0.0475332  0.6190819  0.5019855    0.00000       Uiso       1.00
       C14          C  0.9754623  0.3569978  0.4563513    0.00000       Uiso       1.00
       C15          C  0.9524398  0.3811687  0.4356672    0.00000       Uiso       1.00
       C16          C  0.9765990  0.4041184  0.4504790    0.00000       Uiso       1.00
       C14          C  0.9754623  0.6430016  0.4563513    0.00000       Uiso       1.00
       C15          C  0.9524398  0.6188307  0.4356672    0.00000       Uiso       1.00
       C16          C  0.9765990  0.5958810  0.4504790    0.00000       Uiso       1.00
        O5          O  0.5402814  0.9280118  0.4958561    0.00000       Uiso       1.00
        O5          O  0.0402810  0.4280121  0.4958561    0.00000       Uiso       1.00
        O5          O  0.5402814  0.0719876  0.4958561    0.00000       Uiso       1.00
        O5          O  0.0402810  0.5719873  0.4958561    0.00000       Uiso       1.00
        B3          B  0.5004948  0.9442034  0.4655009    0.00000       Uiso       1.00
        B3          B  0.0004944  0.4442037  0.4655009    0.00000       Uiso       1.00
        B3          B  0.5004948  0.0557960  0.4655009    0.00000       Uiso       1.00
        B3          B  0.0004944  0.5557957  0.4655009    0.00000       Uiso       1.00
        O6          O  0.4603972  0.9282956  0.4370516    0.00000       Uiso       1.00
        O6          O  0.9603977  0.4282959  0.4370516    0.00000       Uiso       1.00
        O6          O  0.4603972  0.0717038  0.4370516    0.00000       Uiso       1.00
        O6          O  0.9603977  0.5717035  0.4370516    0.00000       Uiso       1.00
        H1          H  0.6161616  0.8478619  0.5162784    0.00000       Uiso       1.00
        H2          H  0.5322847  0.7684454  0.4310611    0.00000       Uiso       1.00
        H3          H  0.4662926  0.7686231  0.5110389    0.00000       Uiso       1.00
        H4          H  0.3834781  0.8484071  0.4254989    0.00000       Uiso       1.00
        H5          H  0.4180475  0.8831294  0.4101993    0.00000       Uiso       1.00
        H6          H  0.5819453  0.8827252  0.5273167    0.00000       Uiso       1.00
        H1          H  0.1161611  0.3478622  0.5162784    0.00000       Uiso       1.00
        H2          H  0.0322843  0.2684457  0.4310611    0.00000       Uiso       1.00
        H6          H  0.0819449  0.3827255  0.5273167    0.00000       Uiso       1.00
        H1          H  0.6161616  0.1521375  0.5162784    0.00000       Uiso       1.00
        H2          H  0.5322847  0.2315540  0.4310611    0.00000       Uiso       1.00
        H3          H  0.4662926  0.2313763  0.5110389    0.00000       Uiso       1.00
        H4          H  0.3834781  0.1515922  0.4254989    0.00000       Uiso       1.00
        H5          H  0.4180475  0.1168700  0.4101993    0.00000       Uiso       1.00
        H6          H  0.5819453  0.1172741  0.5273167    0.00000       Uiso       1.00
        H1          H  0.1161611  0.6521372  0.5162784    0.00000       Uiso       1.00
        H2          H  0.0322843  0.7315537  0.4310611    0.00000       Uiso       1.00
        H6          H  0.0819449  0.6172738  0.5273167    0.00000       Uiso       1.00
        H3          H  0.9662930  0.2686234  0.5110389    0.00000       Uiso       1.00
        H4          H  0.8834785  0.3484074  0.4254989    0.00000       Uiso       1.00
        H5          H  0.9180480  0.3831297  0.4101993    0.00000       Uiso       1.00
        H3          H  0.9662930  0.7313760  0.5110389    0.00000       Uiso       1.00
        H4          H  0.8834785  0.6515918  0.4254989    0.00000       Uiso       1.00
        H5          H  0.9180480  0.6168697  0.4101993    0.00000       Uiso       1.00
        C1          C  0.7900743  0.7360871  0.4700193    0.00000       Uiso       1.00
        C2          C  0.2900739  0.2360874  0.4700193    0.00000       Uiso       1.00
        C3          C  0.7900743  0.2639123  0.4700193    0.00000       Uiso       1.00
        C4          C  0.2900739  0.7639120  0.4700193    0.00000       Uiso       1.00
        C5          C  0.7483592  0.7227849  0.4427080    0.00000       Uiso       1.00
        C6          C  0.2483588  0.2227852  0.4427080    0.00000       Uiso       1.00
        C7          C  0.7483592  0.2772145  0.4427080    0.00000       Uiso       1.00
        C8          C  0.2483588  0.7772142  0.4427080    0.00000       Uiso       1.00
        C9          C  0.7503470  0.7764294  0.4999482    0.00000       Uiso       1.00
       C10          C  0.2503466  0.2764297  0.4999482    0.00000       Uiso       1.00
       C11          C  0.7503470  0.2235700  0.4999482    0.00000       Uiso       1.00
       C12          C  0.2503466  0.7235696  0.4999482    0.00000       Uiso       1.00
        H1          H  0.7470818  0.7032579  0.4219438    0.00000       Uiso       1.00
        H2          H  0.2470813  0.2032582  0.4219438    0.00000       Uiso       1.00
        H3          H  0.7470818  0.2967415  0.4219438    0.00000       Uiso       1.00
        H4          H  0.2470813  0.7967412  0.4219438    0.00000       Uiso       1.00
       C13          C  0.7907676  0.7630100  0.4992774    0.00000       Uiso       1.00
       C14          C  0.2907672  0.2630104  0.4992774    0.00000       Uiso       1.00
       C15          C  0.7907676  0.2369893  0.4992774    0.00000       Uiso       1.00
       C16          C  0.2907672  0.7369890  0.4992774    0.00000       Uiso       1.00
       C17          C  0.7079297  0.7362077  0.4433917    0.00000       Uiso       1.00
       C18          C  0.2079293  0.2362080  0.4433917    0.00000       Uiso       1.00
       C19          C  0.7079297  0.2637917  0.4433917    0.00000       Uiso       1.00
       C20          C  0.2079293  0.7637913  0.4433917    0.00000       Uiso       1.00
        H5          H  0.8206091  0.7730596  0.5192352    0.00000       Uiso       1.00
        H6          H  0.3206086  0.2730599  0.5192352    0.00000       Uiso       1.00
        H7          H  0.8206091  0.2269398  0.5192352    0.00000       Uiso       1.00
        H8          H  0.3206086  0.7269394  0.5192352    0.00000       Uiso       1.00
       C21          C  0.7086297  0.7631313  0.4726015    0.00000       Uiso       1.00
       C22          C  0.2086293  0.2631316  0.4726015    0.00000       Uiso       1.00
       C23          C  0.7086297  0.2368681  0.4726015    0.00000       Uiso       1.00
       C24          C  0.2086293  0.7368678  0.4726015    0.00000       Uiso       1.00
        H9          H  0.6780699  0.7261776  0.4234025    0.00000       Uiso       1.00
       H10          H  0.1780695  0.2261779  0.4234025    0.00000       Uiso       1.00
       H11          H  0.6780699  0.2738217  0.4234025    0.00000       Uiso       1.00
       H12          H  0.1780695  0.7738214  0.4234025    0.00000       Uiso       1.00
       H13          H  0.7516372  0.7959610  0.5206477    0.00000       Uiso       1.00
       H14          H  0.2516368  0.2959613  0.5206477    0.00000       Uiso       1.00
       H15          H  0.7516372  0.2040384  0.5206477    0.00000       Uiso       1.00
       H16          H  0.2516368  0.7040380  0.5206477    0.00000       Uiso       1.00
       C25          C  0.5007290  0.0273364  0.4639372    0.00000       Uiso       1.00
       C26          C  0.0007285  0.5273361  0.4639372    0.00000       Uiso       1.00
       C27          C  0.5007290  0.9726630  0.4639372    0.00000       Uiso       1.00
       C28          C  0.0007285  0.4726633  0.4639372    0.00000       Uiso       1.00
       C29          C  0.5416547  0.0133487  0.4889053    0.00000       Uiso       1.00
       C30          C  0.0416543  0.5133483  0.4889053    0.00000       Uiso       1.00
       C31          C  0.5416547  0.9866506  0.4889053    0.00000       Uiso       1.00
       C32          C  0.0416543  0.4866510  0.4889053    0.00000       Uiso       1.00
       C33          C  0.4595231  0.9865007  0.4382585    0.00000       Uiso       1.00
       C34          C  0.9595236  0.4865010  0.4382585    0.00000       Uiso       1.00
       C35          C  0.4595231  0.0134987  0.4382585    0.00000       Uiso       1.00
       C36          C  0.9595236  0.5134983  0.4382585    0.00000       Uiso       1.00
        N1          N  0.5839428  0.0227726  0.5151959    0.00000       Uiso       1.00
        N2          N  0.0839423  0.5227723  0.5151959    0.00000       Uiso       1.00
        N3          N  0.5839428  0.9772268  0.5151959    0.00000       Uiso       1.00
        N4          N  0.0839423  0.4772271  0.5151959    0.00000       Uiso       1.00
        S1          S  0.6244653  0.0000000  0.5418748    0.00000       Uiso       1.00
        S2          S  0.1244648  0.4999997  0.5418748    0.00000       Uiso       1.00
       H18          H  0.4292815  0.0229663  0.4218658    0.00000       Uiso       1.00
       H18          H  0.9292819  0.5229660  0.4218658    0.00000       Uiso       1.00
       H18          H  0.4292815  0.9770330  0.4218658    0.00000       Uiso       1.00
       H18          H  0.9292819  0.4770334  0.4218658    0.00000       Uiso       1.00
