data_MC-COF-TP-E11E71
_audit_creation_date              0000-00-00
_audit_creation_method            'LanYouShi'
_symmetry_space_group_name_H-M    'P1'
_cell_length_a                    56.4300003
_cell_length_b                    3.5334001
_cell_length_c                    37.4959984
_cell_angle_alpha                 90.0000000
_cell_angle_beta                  90.0000000
_cell_angle_gamma                 90.0000000
loop_
_atom_site_label
_atom_site_type_symbol
_atom_site_fract_x
_atom_site_fract_y
_atom_site_fract_z
_atom_site_U_iso_or_equiv
_atom_site_adp_type
_atom_site_occupancy
        C1          C  0.6326054  0.5000055  0.9805183    0.00000       Uiso       1.00
        C2          C  0.1321420  0.5000055  0.4806292    0.00000       Uiso       1.00
        C3          C  0.3676616  0.5000055  0.0189439    0.00000       Uiso       1.00
        C4          C  0.8679650  0.5000055  0.5190522    0.00000       Uiso       1.00
        C5          C  0.3673948  0.5000055  0.9805183    0.00000       Uiso       1.00
        C6          C  0.8678582  0.5000055  0.4806292    0.00000       Uiso       1.00
        C7          C  0.6323386  0.5000055  0.0189439    0.00000       Uiso       1.00
        C8          C  0.1320353  0.5000055  0.5190522    0.00000       Uiso       1.00
        C9          C  0.6104099  0.5000055  0.9620956    0.00000       Uiso       1.00
       C10          C  0.1098602  0.5000055  0.4623829    0.00000       Uiso       1.00
       C11          C  0.3901372  0.5000055  0.0366983    0.00000       Uiso       1.00
       C12          C  0.8903425  0.5000055  0.5370163    0.00000       Uiso       1.00
       C13          C  0.3895904  0.5000055  0.9620956    0.00000       Uiso       1.00
       C14          C  0.8901401  0.5000055  0.4623829    0.00000       Uiso       1.00
       C15          C  0.6098630  0.5000055  0.0366983    0.00000       Uiso       1.00
       C16          C  0.1096577  0.5000055  0.5370163    0.00000       Uiso       1.00
       C17          C  0.5890774  0.5000055  0.9806708    0.00000       Uiso       1.00
       C18          C  0.0885610  0.5000055  0.4811259    0.00000       Uiso       1.00
       C19          C  0.4112764  0.5000055  0.0174874    0.00000       Uiso       1.00
       C20          C  0.9115303  0.5000055  0.5180065    0.00000       Uiso       1.00
       C21          C  0.4109228  0.5000055  0.9806708    0.00000       Uiso       1.00
       C22          C  0.9114392  0.5000055  0.4811259    0.00000       Uiso       1.00
       C23          C  0.5887238  0.5000055  0.0174874    0.00000       Uiso       1.00
       C24          C  0.0884700  0.5000055  0.5180065    0.00000       Uiso       1.00
        H1          H  0.6077243  0.5000055  0.0635318    0.00000       Uiso       1.00
        H2          H  0.1076704  0.5000055  0.5638872    0.00000       Uiso       1.00
        H3          H  0.3914514  0.5000055  0.9351988    0.00000       Uiso       1.00
        H4          H  0.8919724  0.5000055  0.4354870    0.00000       Uiso       1.00
        H5          H  0.3922759  0.5000055  0.0635318    0.00000       Uiso       1.00
        H6          H  0.8923299  0.5000055  0.5638872    0.00000       Uiso       1.00
        H7          H  0.6085489  0.5000055  0.9351988    0.00000       Uiso       1.00
        H8          H  0.1080279  0.5000055  0.4354870    0.00000       Uiso       1.00
        H9          H  0.6400608  0.5000055  0.0921262    0.00000       Uiso       1.00
       H10          H  0.1400057  0.5000055  0.5922785    0.00000       Uiso       1.00
       H11          H  0.3588849  0.5000055  0.9075000    0.00000       Uiso       1.00
       H12          H  0.8594562  0.5000055  0.4075236    0.00000       Uiso       1.00
       H13          H  0.3599395  0.5000055  0.0921262    0.00000       Uiso       1.00
       H14          H  0.8599946  0.5000055  0.5922785    0.00000       Uiso       1.00
       H15          H  0.6411154  0.5000055  0.9075000    0.00000       Uiso       1.00
       H16          H  0.1405441  0.5000055  0.4075236    0.00000       Uiso       1.00
       H17          H  0.7143341  0.5000055  0.0288826    0.00000       Uiso       1.00
       H18          H  0.2140827  0.5000055  0.5285790    0.00000       Uiso       1.00
       H19          H  0.2853157  0.5000055  0.9725329    0.00000       Uiso       1.00
       H20          H  0.7857520  0.5000055  0.4722058    0.00000       Uiso       1.00
       H21          H  0.2856662  0.5000055  0.0288826    0.00000       Uiso       1.00
       H22          H  0.7859175  0.5000055  0.5285790    0.00000       Uiso       1.00
       H23          H  0.7146845  0.5000055  0.9725329    0.00000       Uiso       1.00
       H24          H  0.2142483  0.5000055  0.4722058    0.00000       Uiso       1.00
       C25          C  0.4746048  0.5000055  0.9979947    0.00000       Uiso       1.00
       C26          C  0.9748181  0.5000055  0.4993173    0.00000       Uiso       1.00
       C27          C  0.5253955  0.5000055  0.9979947    0.00000       Uiso       1.00
       C28          C  0.0251822  0.5000055  0.4993173    0.00000       Uiso       1.00
       C29          C  0.4876441  0.5000055  0.9658673    0.00000       Uiso       1.00
       C30          C  0.9875273  0.5000055  0.4668470    0.00000       Uiso       1.00
       C31          C  0.5125087  0.5000055  0.0303924    0.00000       Uiso       1.00
       C32          C  0.0124696  0.5000055  0.5317829    0.00000       Uiso       1.00
       C33          C  0.5123561  0.5000055  0.9658673    0.00000       Uiso       1.00
       C34          C  0.0124730  0.5000055  0.4668470    0.00000       Uiso       1.00
       C35          C  0.4874915  0.5000055  0.0303924    0.00000       Uiso       1.00
       C36          C  0.9875306  0.5000055  0.5317829    0.00000       Uiso       1.00
       H25          H  0.9786429  0.5000055  0.4429757    0.00000       Uiso       1.00
       H26          H  0.5213431  0.5000055  0.0542338    0.00000       Uiso       1.00
       H27          H  0.0213441  0.5000055  0.5556641    0.00000       Uiso       1.00
       H28          H  0.0213573  0.5000055  0.4429757    0.00000       Uiso       1.00
       H29          H  0.4786572  0.5000055  0.0542338    0.00000       Uiso       1.00
       H30          H  0.9786561  0.5000055  0.5556641    0.00000       Uiso       1.00
       C37          C  0.7810447  0.5000055  0.3323461    0.00000       Uiso       1.00
       C38          C  0.2804143  0.5000055  0.8326250    0.00000       Uiso       1.00
       C39          C  0.2180086  0.5000055  0.6684474    0.00000       Uiso       1.00
       C40          C  0.7181764  0.5000055  0.1685533    0.00000       Uiso       1.00
       C41          C  0.2189555  0.5000055  0.3323461    0.00000       Uiso       1.00
       C42          C  0.7195860  0.5000055  0.8326250    0.00000       Uiso       1.00
       C43          C  0.7819917  0.5000055  0.6684474    0.00000       Uiso       1.00
       C44          C  0.2818238  0.5000055  0.1685533    0.00000       Uiso       1.00
       C45          C  0.7560177  0.5000055  0.3321104    0.00000       Uiso       1.00
       C46          C  0.2553933  0.5000055  0.8322515    0.00000       Uiso       1.00
       C47          C  0.2430314  0.5000055  0.6688610    0.00000       Uiso       1.00
       C48          C  0.7432003  0.5000055  0.1688190    0.00000       Uiso       1.00
       C49          C  0.2439825  0.5000055  0.3321104    0.00000       Uiso       1.00
       C50          C  0.7446069  0.5000055  0.8322515    0.00000       Uiso       1.00
       C51          C  0.7569689  0.5000055  0.6688610    0.00000       Uiso       1.00
       C52          C  0.2567999  0.5000055  0.1688190    0.00000       Uiso       1.00
       C53          C  0.7810707  0.5000055  0.2668421    0.00000       Uiso       1.00
       C54          C  0.2806307  0.5000055  0.7671266    0.00000       Uiso       1.00
       C55          C  0.2177751  0.5000055  0.7339579    0.00000       Uiso       1.00
       C56          C  0.7181146  0.5000055  0.2340539    0.00000       Uiso       1.00
       C57          C  0.2189295  0.5000055  0.2668421    0.00000       Uiso       1.00
       C58          C  0.7193695  0.5000055  0.7671266    0.00000       Uiso       1.00
       C59          C  0.7822252  0.5000055  0.7339579    0.00000       Uiso       1.00
       C60          C  0.2818857  0.5000055  0.2340539    0.00000       Uiso       1.00
       H31          H  0.7469488  0.5000055  0.3558411    0.00000       Uiso       1.00
       H32          H  0.2463106  0.5000055  0.8559602    0.00000       Uiso       1.00
       H33          H  0.2521840  0.5000055  0.6452030    0.00000       Uiso       1.00
       H34          H  0.7522507  0.5000055  0.1450763    0.00000       Uiso       1.00
       H35          H  0.2530514  0.5000055  0.3558411    0.00000       Uiso       1.00
       H36          H  0.7536896  0.5000055  0.8559602    0.00000       Uiso       1.00
       H37          H  0.7478162  0.5000055  0.6452030    0.00000       Uiso       1.00
       H38          H  0.2477496  0.5000055  0.1450763    0.00000       Uiso       1.00
       C61          C  0.7933936  0.5000055  0.2995895    0.00000       Uiso       1.00
       C62          C  0.2928591  0.5000055  0.7999477    0.00000       Uiso       1.00
       C63          C  0.2055532  0.5000055  0.7011166    0.00000       Uiso       1.00
       C64          C  0.7058000  0.5000055  0.2012871    0.00000       Uiso       1.00
       C65          C  0.2066066  0.5000055  0.2995895    0.00000       Uiso       1.00
       C66          C  0.7071411  0.5000055  0.7999477    0.00000       Uiso       1.00
       C67          C  0.7944471  0.5000055  0.7011166    0.00000       Uiso       1.00
       C68          C  0.2942002  0.5000055  0.2012871    0.00000       Uiso       1.00
       C69          C  0.7433103  0.5000055  0.2996854    0.00000       Uiso       1.00
       C70          C  0.2427769  0.5000055  0.7997472    0.00000       Uiso       1.00
       C71          C  0.2556330  0.5000055  0.7013686    0.00000       Uiso       1.00
       C72          C  0.7558930  0.5000055  0.2012404    0.00000       Uiso       1.00
       C73          C  0.2566899  0.5000055  0.2996854    0.00000       Uiso       1.00
       C74          C  0.7572234  0.5000055  0.7997472    0.00000       Uiso       1.00
       C75          C  0.7443673  0.5000055  0.7013686    0.00000       Uiso       1.00
       C76          C  0.2441073  0.5000055  0.2012404    0.00000       Uiso       1.00
       H39          H  0.8115777  0.5000055  0.2996113    0.00000       Uiso       1.00
       H40          H  0.3110626  0.5000055  0.8001050    0.00000       Uiso       1.00
       H41          H  0.1873713  0.5000055  0.7009588    0.00000       Uiso       1.00
       H42          H  0.6876023  0.5000055  0.2011960    0.00000       Uiso       1.00
       H43          H  0.1884226  0.5000055  0.2996113    0.00000       Uiso       1.00
       H44          H  0.6889377  0.5000055  0.8001050    0.00000       Uiso       1.00
       H45          H  0.8126289  0.5000055  0.7009588    0.00000       Uiso       1.00
       H46          H  0.3123980  0.5000055  0.2011960    0.00000       Uiso       1.00
       C77          C  0.7558936  0.5000055  0.2668673    0.00000       Uiso       1.00
       C78          C  0.2554556  0.5000055  0.7670062    0.00000       Uiso       1.00
       C79          C  0.2429513  0.5000055  0.7341018    0.00000       Uiso       1.00
       C80          C  0.7432935  0.5000055  0.2340442    0.00000       Uiso       1.00
       C81          C  0.2441066  0.5000055  0.2668673    0.00000       Uiso       1.00
       C82          C  0.7445446  0.5000055  0.7670062    0.00000       Uiso       1.00
       C83          C  0.7570490  0.5000055  0.7341018    0.00000       Uiso       1.00
       C84          C  0.2567067  0.5000055  0.2340442    0.00000       Uiso       1.00
       C85          C  0.7058497  0.5000055  0.2668476    0.00000       Uiso       1.00
       C86          C  0.2054138  0.5000055  0.7666716    0.00000       Uiso       1.00
       C87          C  0.2929957  0.5000055  0.7344205    0.00000       Uiso       1.00
       C88          C  0.7933462  0.5000055  0.2340589    0.00000       Uiso       1.00
       C89          C  0.2941505  0.5000055  0.2668476    0.00000       Uiso       1.00
       C90          C  0.7945864  0.5000055  0.7666716    0.00000       Uiso       1.00
       C91          C  0.7070045  0.5000055  0.7344205    0.00000       Uiso       1.00
       C92          C  0.2066541  0.5000055  0.2340589    0.00000       Uiso       1.00
       C93          C  0.7808954  0.5000055  0.2016175    0.00000       Uiso       1.00
       C94          C  0.2806339  0.5000055  0.7019027    0.00000       Uiso       1.00
       C95          C  0.2177749  0.5000055  0.7991987    0.00000       Uiso       1.00
       C96          C  0.7183056  0.5000055  0.2992935    0.00000       Uiso       1.00
       C97          C  0.2191048  0.5000055  0.2016175    0.00000       Uiso       1.00
       C98          C  0.7193663  0.5000055  0.7019027    0.00000       Uiso       1.00
       C99          C  0.7822254  0.5000055  0.7991987    0.00000       Uiso       1.00
      C100          C  0.2816945  0.5000055  0.2992935    0.00000       Uiso       1.00
       H47          H  0.6877159  0.5000055  0.2674125    0.00000       Uiso       1.00
       H48          H  0.1872786  0.5000055  0.7671192    0.00000       Uiso       1.00
       H49          H  0.3111312  0.5000055  0.7339712    0.00000       Uiso       1.00
       H50          H  0.8114802  0.5000055  0.2334963    0.00000       Uiso       1.00
       H51          H  0.3122843  0.5000055  0.2674125    0.00000       Uiso       1.00
       H52          H  0.8127217  0.5000055  0.7671192    0.00000       Uiso       1.00
       H53          H  0.6888690  0.5000055  0.7339712    0.00000       Uiso       1.00
       H54          H  0.1885200  0.5000055  0.2334963    0.00000       Uiso       1.00
       H55          H  0.7902794  0.5000055  0.1782579    0.00000       Uiso       1.00
       H56          H  0.2900833  0.5000055  0.6786028    0.00000       Uiso       1.00
       H57          H  0.2083255  0.5000055  0.8224981    0.00000       Uiso       1.00
       H58          H  0.7089213  0.5000055  0.3226523    0.00000       Uiso       1.00
       H59          H  0.2097208  0.5000055  0.1782579    0.00000       Uiso       1.00
       H60          H  0.7099168  0.5000055  0.6786028    0.00000       Uiso       1.00
       H61          H  0.7916747  0.5000055  0.8224981    0.00000       Uiso       1.00
       H62          H  0.2910790  0.5000055  0.3226523    0.00000       Uiso       1.00
        N1          N  0.4789064  0.5000055  0.9326400    0.00000       Uiso       1.00
        N2          N  0.5210939  0.5000055  0.9326400    0.00000       Uiso       1.00
        S1          S  0.5000001  0.5000055  0.9008321    0.00000       Uiso       1.00
        O1          O  0.5670415  0.5000055  0.9672718    0.00000       Uiso       1.00
        O1          O  0.0663415  0.5000055  0.4679772    0.00000       Uiso       1.00
        O1          O  0.4336492  0.5000055  0.0300056    0.00000       Uiso       1.00
        O1          O  0.9338024  0.5000055  0.5309187    0.00000       Uiso       1.00
        O1          O  0.4329587  0.5000055  0.9672718    0.00000       Uiso       1.00
        O1          O  0.9336588  0.5000055  0.4679772    0.00000       Uiso       1.00
        O1          O  0.5663511  0.5000055  0.0300056    0.00000       Uiso       1.00
        O1          O  0.0661978  0.5000055  0.5309187    0.00000       Uiso       1.00
        B1          B  0.5518168  0.5000055  0.9982095    0.00000       Uiso       1.00
        B1          B  0.0515816  0.5000055  0.4993750    0.00000       Uiso       1.00
        B1          B  0.4481835  0.5000055  0.9982095    0.00000       Uiso       1.00
        B1          B  0.9484186  0.5000055  0.4993750    0.00000       Uiso       1.00
        C7          C  0.6546445  0.5000055  0.9617198    0.00000       Uiso       1.00
        C8          C  0.6766440  0.5000055  0.9811948    0.00000       Uiso       1.00
        C9          C  0.6555742  0.5000055  0.9235792    0.00000       Uiso       1.00
       C10          C  0.6771416  0.5000055  0.9055861    0.00000       Uiso       1.00
       C11          C  0.6982916  0.5000055  0.9242384    0.00000       Uiso       1.00
       C12          C  0.6983321  0.5000055  0.9613807    0.00000       Uiso       1.00
        C7          C  0.1541454  0.5000055  0.4617117    0.00000       Uiso       1.00
        C8          C  0.1762036  0.5000055  0.4810660    0.00000       Uiso       1.00
        C9          C  0.1550039  0.5000055  0.4235636    0.00000       Uiso       1.00
       C10          C  0.1765413  0.5000055  0.4054560    0.00000       Uiso       1.00
       C11          C  0.1977116  0.5000055  0.4240256    0.00000       Uiso       1.00
       C12          C  0.1978463  0.5000055  0.4611556    0.00000       Uiso       1.00
        C7          C  0.3458195  0.5000055  0.0382826    0.00000       Uiso       1.00
        C8          C  0.3236000  0.5000055  0.0193347    0.00000       Uiso       1.00
        C9          C  0.3452940  0.5000055  0.0764490    0.00000       Uiso       1.00
       C10          C  0.3239051  0.5000055  0.0949749    0.00000       Uiso       1.00
       C11          C  0.3025839  0.5000055  0.0767594    0.00000       Uiso       1.00
       C12          C  0.3021354  0.5000055  0.0396461    0.00000       Uiso       1.00
        C7          C  0.8460768  0.5000055  0.5382649    0.00000       Uiso       1.00
        C8          C  0.8239085  0.5000055  0.5192014    0.00000       Uiso       1.00
        C9          C  0.8454444  0.5000055  0.5764253    0.00000       Uiso       1.00
       C10          C  0.8240182  0.5000055  0.5948243    0.00000       Uiso       1.00
       C11          C  0.8027450  0.5000055  0.5765272    0.00000       Uiso       1.00
       C12          C  0.8023862  0.5000055  0.5394015    0.00000       Uiso       1.00
        C7          C  0.3453557  0.5000055  0.9617198    0.00000       Uiso       1.00
        C8          C  0.3233563  0.5000055  0.9811948    0.00000       Uiso       1.00
        C9          C  0.3444260  0.5000055  0.9235792    0.00000       Uiso       1.00
       C10          C  0.3228587  0.5000055  0.9055861    0.00000       Uiso       1.00
       C11          C  0.3017086  0.5000055  0.9242384    0.00000       Uiso       1.00
       C12          C  0.3016682  0.5000055  0.9613807    0.00000       Uiso       1.00
        C7          C  0.8458548  0.5000055  0.4617117    0.00000       Uiso       1.00
        C8          C  0.8237967  0.5000055  0.4810660    0.00000       Uiso       1.00
        C9          C  0.8449963  0.5000055  0.4235636    0.00000       Uiso       1.00
       C10          C  0.8234590  0.5000055  0.4054560    0.00000       Uiso       1.00
       C11          C  0.8022887  0.5000055  0.4240256    0.00000       Uiso       1.00
       C12          C  0.8021539  0.5000055  0.4611556    0.00000       Uiso       1.00
        C7          C  0.6541808  0.5000055  0.0382826    0.00000       Uiso       1.00
        C8          C  0.6764002  0.5000055  0.0193347    0.00000       Uiso       1.00
        C9          C  0.6547062  0.5000055  0.0764490    0.00000       Uiso       1.00
       C10          C  0.6760951  0.5000055  0.0949749    0.00000       Uiso       1.00
       C11          C  0.6974164  0.5000055  0.0767594    0.00000       Uiso       1.00
       C12          C  0.6978648  0.5000055  0.0396461    0.00000       Uiso       1.00
        C7          C  0.1539235  0.5000055  0.5382649    0.00000       Uiso       1.00
        C8          C  0.1760918  0.5000055  0.5192014    0.00000       Uiso       1.00
        C9          C  0.1545558  0.5000055  0.5764253    0.00000       Uiso       1.00
       C10          C  0.1759820  0.5000055  0.5948243    0.00000       Uiso       1.00
       C11          C  0.1972552  0.5000055  0.5765272    0.00000       Uiso       1.00
       C12          C  0.1976141  0.5000055  0.5394015    0.00000       Uiso       1.00
        O3          O  0.7170734  0.5000055  0.9019889    0.00000       Uiso       1.00
        O3          O  0.2163740  0.5000055  0.4016457    0.00000       Uiso       1.00
        O3          O  0.2840120  0.5000055  0.0993553    0.00000       Uiso       1.00
        O3          O  0.7842181  0.5000055  0.5991464    0.00000       Uiso       1.00
        O3          O  0.2829268  0.5000055  0.9019889    0.00000       Uiso       1.00
        O3          O  0.7836262  0.5000055  0.4016457    0.00000       Uiso       1.00
        O3          O  0.7159883  0.5000055  0.0993553    0.00000       Uiso       1.00
        O3          O  0.2157822  0.5000055  0.5991464    0.00000       Uiso       1.00
        B2          B  0.7063959  0.5000055  0.8670449    0.00000       Uiso       1.00
        B2          B  0.2057014  0.5000055  0.3667128    0.00000       Uiso       1.00
        B2          B  0.2949632  0.5000055  0.1340868    0.00000       Uiso       1.00
        B2          B  0.7950862  0.5000055  0.6339447    0.00000       Uiso       1.00
        B2          B  0.2936043  0.5000055  0.8670449    0.00000       Uiso       1.00
        B2          B  0.7942988  0.5000055  0.3667128    0.00000       Uiso       1.00
        B2          B  0.7050371  0.5000055  0.1340868    0.00000       Uiso       1.00
        B2          B  0.2049140  0.5000055  0.6339447    0.00000       Uiso       1.00
        O4          O  0.6809607  0.5000055  0.8701413    0.00000       Uiso       1.00
        O4          O  0.1802364  0.5000055  0.3699723    0.00000       Uiso       1.00
        O4          O  0.3203869  0.5000055  0.1305283    0.00000       Uiso       1.00
        O4          O  0.8205324  0.5000055  0.6303575    0.00000       Uiso       1.00
        O4          O  0.3190396  0.5000055  0.8701413    0.00000       Uiso       1.00
        O4          O  0.8197638  0.5000055  0.3699723    0.00000       Uiso       1.00
        O4          O  0.6796134  0.5000055  0.1305283    0.00000       Uiso       1.00
        O4          O  0.1794679  0.5000055  0.6303575    0.00000       Uiso       1.00
