data_crystal
 
_cell_length_a    56.43000
_cell_length_b    3.53340
_cell_length_c    37.49600
_cell_angle_alpha 90.00000
_cell_angle_beta  90.00000
_cell_angle_gamma 90.00000
 
_symmetry_space_group_name_Hall 'P 1'
_symmetry_space_group_name_H-M  'P 1'
 
loop_
_symmetry_equiv_pos_as_xyz
 'x,y,z' 
 
loop_
_atom_site_label
_atom_site_type_symbol
_atom_site_fract_x
_atom_site_fract_y
_atom_site_fract_z
_atom_site_charge
C          C       0.63261   0.50001   0.98052   0.0000000000
C          C       0.13214   0.50001   0.48063   0.0000000000
C          C       0.36766   0.50001   0.01894   0.0000000000
C          C       0.86796   0.50001   0.51905   0.0000000000
C          C       0.36739   0.50001   0.98052   0.0000000000
C          C       0.86786   0.50001   0.48063   0.0000000000
C          C       0.63234   0.50001   0.01894   0.0000000000
C          C       0.13204   0.50001   0.51905   0.0000000000
C          C       0.61041   0.50001   0.96210   0.0000000000
C          C       0.10986   0.50001   0.46238   0.0000000000
C          C       0.39014   0.50001   0.03670   0.0000000000
C          C       0.89034   0.50001   0.53702   0.0000000000
C          C       0.38959   0.50001   0.96210   0.0000000000
C          C       0.89014   0.50001   0.46238   0.0000000000
C          C       0.60986   0.50001   0.03670   0.0000000000
C          C       0.10966   0.50001   0.53702   0.0000000000
C          C       0.58908   0.50001   0.98067   0.0000000000
C          C       0.08856   0.50001   0.48113   0.0000000000
C          C       0.41128   0.50001   0.01749   0.0000000000
C          C       0.91153   0.50001   0.51801   0.0000000000
C          C       0.41092   0.50001   0.98067   0.0000000000
C          C       0.91144   0.50001   0.48113   0.0000000000
C          C       0.58872   0.50001   0.01749   0.0000000000
C          C       0.08847   0.50001   0.51801   0.0000000000
H          H       0.60772   0.50001   0.06353   0.0000000000
H          H       0.10767   0.50001   0.56389   0.0000000000
H          H       0.39145   0.50001   0.93520   0.0000000000
H          H       0.89197   0.50001   0.43549   0.0000000000
H          H       0.39228   0.50001   0.06353   0.0000000000
H          H       0.89233   0.50001   0.56389   0.0000000000
H          H       0.60855   0.50001   0.93520   0.0000000000
H          H       0.10803   0.50001   0.43549   0.0000000000
H          H       0.64006   0.50001   0.09213   0.0000000000
H          H       0.14001   0.50001   0.59228   0.0000000000
H          H       0.35888   0.50001   0.90750   0.0000000000
H          H       0.85946   0.50001   0.40752   0.0000000000
H          H       0.35994   0.50001   0.09213   0.0000000000
H          H       0.85999   0.50001   0.59228   0.0000000000
H          H       0.64112   0.50001   0.90750   0.0000000000
H          H       0.14054   0.50001   0.40752   0.0000000000
H          H       0.71433   0.50001   0.02888   0.0000000000
H          H       0.21408   0.50001   0.52858   0.0000000000
H          H       0.28532   0.50001   0.97253   0.0000000000
H          H       0.78575   0.50001   0.47221   0.0000000000
H          H       0.28567   0.50001   0.02888   0.0000000000
H          H       0.78592   0.50001   0.52858   0.0000000000
H          H       0.71468   0.50001   0.97253   0.0000000000
H          H       0.21425   0.50001   0.47221   0.0000000000
C          C       0.47460   0.50001   0.99799   0.0000000000
C          C       0.97482   0.50001   0.49932   0.0000000000
C          C       0.52540   0.50001   0.99799   0.0000000000
C          C       0.02518   0.50001   0.49932   0.0000000000
C          C       0.48764   0.50001   0.96587   0.0000000000
C          C       0.98753   0.50001   0.46685   0.0000000000
C          C       0.51251   0.50001   0.03039   0.0000000000
C          C       0.01247   0.50001   0.53178   0.0000000000
C          C       0.51236   0.50001   0.96587   0.0000000000
C          C       0.01247   0.50001   0.46685   0.0000000000
C          C       0.48749   0.50001   0.03039   0.0000000000
C          C       0.98753   0.50001   0.53178   0.0000000000
H          H       0.97864   0.50001   0.44298   0.0000000000
H          H       0.52134   0.50001   0.05423   0.0000000000
H          H       0.02134   0.50001   0.55566   0.0000000000
H          H       0.02136   0.50001   0.44298   0.0000000000
H          H       0.47866   0.50001   0.05423   0.0000000000
H          H       0.97866   0.50001   0.55566   0.0000000000
C          C       0.78104   0.50001   0.33235   0.0000000000
C          C       0.28041   0.50001   0.83262   0.0000000000
C          C       0.21801   0.50001   0.66845   0.0000000000
C          C       0.71818   0.50001   0.16855   0.0000000000
C          C       0.21896   0.50001   0.33235   0.0000000000
C          C       0.71959   0.50001   0.83262   0.0000000000
C          C       0.78199   0.50001   0.66845   0.0000000000
C          C       0.28182   0.50001   0.16855   0.0000000000
C          C       0.75602   0.50001   0.33211   0.0000000000
C          C       0.25539   0.50001   0.83225   0.0000000000
C          C       0.24303   0.50001   0.66886   0.0000000000
C          C       0.74320   0.50001   0.16882   0.0000000000
C          C       0.24398   0.50001   0.33211   0.0000000000
C          C       0.74461   0.50001   0.83225   0.0000000000
C          C       0.75697   0.50001   0.66886   0.0000000000
C          C       0.25680   0.50001   0.16882   0.0000000000
C          C       0.78107   0.50001   0.26684   0.0000000000
C          C       0.28063   0.50001   0.76713   0.0000000000
C          C       0.21778   0.50001   0.73396   0.0000000000
C          C       0.71811   0.50001   0.23405   0.0000000000
C          C       0.21893   0.50001   0.26684   0.0000000000
C          C       0.71937   0.50001   0.76713   0.0000000000
C          C       0.78223   0.50001   0.73396   0.0000000000
C          C       0.28189   0.50001   0.23405   0.0000000000
H          H       0.74695   0.50001   0.35584   0.0000000000
H          H       0.24631   0.50001   0.85596   0.0000000000
H          H       0.25218   0.50001   0.64520   0.0000000000
H          H       0.75225   0.50001   0.14508   0.0000000000
H          H       0.25305   0.50001   0.35584   0.0000000000
H          H       0.75369   0.50001   0.85596   0.0000000000
H          H       0.74782   0.50001   0.64520   0.0000000000
H          H       0.24775   0.50001   0.14508   0.0000000000
C          C       0.79339   0.50001   0.29959   0.0000000000
C          C       0.29286   0.50001   0.79995   0.0000000000
C          C       0.20555   0.50001   0.70112   0.0000000000
C          C       0.70580   0.50001   0.20129   0.0000000000
C          C       0.20661   0.50001   0.29959   0.0000000000
C          C       0.70714   0.50001   0.79995   0.0000000000
C          C       0.79445   0.50001   0.70112   0.0000000000
C          C       0.29420   0.50001   0.20129   0.0000000000
C          C       0.74331   0.50001   0.29969   0.0000000000
C          C       0.24278   0.50001   0.79975   0.0000000000
C          C       0.25563   0.50001   0.70137   0.0000000000
C          C       0.75589   0.50001   0.20124   0.0000000000
C          C       0.25669   0.50001   0.29969   0.0000000000
C          C       0.75722   0.50001   0.79975   0.0000000000
C          C       0.74437   0.50001   0.70137   0.0000000000
C          C       0.24411   0.50001   0.20124   0.0000000000
H          H       0.81158   0.50001   0.29961   0.0000000000
H          H       0.31106   0.50001   0.80010   0.0000000000
H          H       0.18737   0.50001   0.70096   0.0000000000
H          H       0.68760   0.50001   0.20120   0.0000000000
H          H       0.18842   0.50001   0.29961   0.0000000000
H          H       0.68894   0.50001   0.80010   0.0000000000
H          H       0.81263   0.50001   0.70096   0.0000000000
H          H       0.31240   0.50001   0.20120   0.0000000000
C          C       0.75589   0.50001   0.26687   0.0000000000
C          C       0.25546   0.50001   0.76701   0.0000000000
C          C       0.24295   0.50001   0.73410   0.0000000000
C          C       0.74329   0.50001   0.23404   0.0000000000
C          C       0.24411   0.50001   0.26687   0.0000000000
C          C       0.74454   0.50001   0.76701   0.0000000000
C          C       0.75705   0.50001   0.73410   0.0000000000
C          C       0.25671   0.50001   0.23404   0.0000000000
C          C       0.70585   0.50001   0.26685   0.0000000000
C          C       0.20541   0.50001   0.76667   0.0000000000
C          C       0.29300   0.50001   0.73442   0.0000000000
C          C       0.79335   0.50001   0.23406   0.0000000000
C          C       0.29415   0.50001   0.26685   0.0000000000
C          C       0.79459   0.50001   0.76667   0.0000000000
C          C       0.70700   0.50001   0.73442   0.0000000000
C          C       0.20665   0.50001   0.23406   0.0000000000
C          C       0.78090   0.50001   0.20162   0.0000000000
C          C       0.28063   0.50001   0.70190   0.0000000000
C          C       0.21777   0.50001   0.79920   0.0000000000
C          C       0.71831   0.50001   0.29929   0.0000000000
C          C       0.21910   0.50001   0.20162   0.0000000000
C          C       0.71937   0.50001   0.70190   0.0000000000
C          C       0.78223   0.50001   0.79920   0.0000000000
C          C       0.28169   0.50001   0.29929   0.0000000000
H          H       0.68772   0.50001   0.26741   0.0000000000
H          H       0.18728   0.50001   0.76712   0.0000000000
H          H       0.31113   0.50001   0.73397   0.0000000000
H          H       0.81148   0.50001   0.23350   0.0000000000
H          H       0.31228   0.50001   0.26741   0.0000000000
H          H       0.81272   0.50001   0.76712   0.0000000000
H          H       0.68887   0.50001   0.73397   0.0000000000
H          H       0.18852   0.50001   0.23350   0.0000000000
H          H       0.79028   0.50001   0.17826   0.0000000000
H          H       0.29008   0.50001   0.67860   0.0000000000
H          H       0.20833   0.50001   0.82250   0.0000000000
H          H       0.70892   0.50001   0.32265   0.0000000000
H          H       0.20972   0.50001   0.17826   0.0000000000
H          H       0.70992   0.50001   0.67860   0.0000000000
H          H       0.79167   0.50001   0.82250   0.0000000000
H          H       0.29108   0.50001   0.32265   0.0000000000
N          N       0.47891   0.50001   0.93264   0.0000000000
N          N       0.52109   0.50001   0.93264   0.0000000000
S          S       0.50000   0.50001   0.90083   0.0000000000
O          O       0.56704   0.50001   0.96727   0.0000000000
O          O       0.06634   0.50001   0.46798   0.0000000000
O          O       0.43365   0.50001   0.03001   0.0000000000
O          O       0.93380   0.50001   0.53092   0.0000000000
O          O       0.43296   0.50001   0.96727   0.0000000000
O          O       0.93366   0.50001   0.46798   0.0000000000
O          O       0.56635   0.50001   0.03001   0.0000000000
O          O       0.06620   0.50001   0.53092   0.0000000000
B          B       0.55182   0.50001   0.99821   0.0000000000
B          B       0.05158   0.50001   0.49938   0.0000000000
B          B       0.44818   0.50001   0.99821   0.0000000000
B          B       0.94842   0.50001   0.49938   0.0000000000
C          C       0.65464   0.50001   0.96172   0.0000000000
C          C       0.67664   0.50001   0.98119   0.0000000000
C          C       0.65557   0.50001   0.92358   0.0000000000
C          C       0.67714   0.50001   0.90559   0.0000000000
C          C       0.69829   0.50001   0.92424   0.0000000000
C          C       0.69833   0.50001   0.96138   0.0000000000
C          C       0.15415   0.50001   0.46171   0.0000000000
C          C       0.17620   0.50001   0.48107   0.0000000000
C          C       0.15500   0.50001   0.42356   0.0000000000
C          C       0.17654   0.50001   0.40546   0.0000000000
C          C       0.19771   0.50001   0.42403   0.0000000000
C          C       0.19785   0.50001   0.46116   0.0000000000
C          C       0.34582   0.50001   0.03828   0.0000000000
C          C       0.32360   0.50001   0.01933   0.0000000000
C          C       0.34529   0.50001   0.07645   0.0000000000
C          C       0.32391   0.50001   0.09497   0.0000000000
C          C       0.30258   0.50001   0.07676   0.0000000000
C          C       0.30214   0.50001   0.03965   0.0000000000
C          C       0.84608   0.50001   0.53826   0.0000000000
C          C       0.82391   0.50001   0.51920   0.0000000000
C          C       0.84544   0.50001   0.57643   0.0000000000
C          C       0.82402   0.50001   0.59482   0.0000000000
C          C       0.80275   0.50001   0.57653   0.0000000000
C          C       0.80239   0.50001   0.53940   0.0000000000
C          C       0.34536   0.50001   0.96172   0.0000000000
C          C       0.32336   0.50001   0.98119   0.0000000000
C          C       0.34443   0.50001   0.92358   0.0000000000
C          C       0.32286   0.50001   0.90559   0.0000000000
C          C       0.30171   0.50001   0.92424   0.0000000000
C          C       0.30167   0.50001   0.96138   0.0000000000
C          C       0.84585   0.50001   0.46171   0.0000000000
C          C       0.82380   0.50001   0.48107   0.0000000000
C          C       0.84500   0.50001   0.42356   0.0000000000
C          C       0.82346   0.50001   0.40546   0.0000000000
C          C       0.80229   0.50001   0.42403   0.0000000000
C          C       0.80215   0.50001   0.46116   0.0000000000
C          C       0.65418   0.50001   0.03828   0.0000000000
C          C       0.67640   0.50001   0.01933   0.0000000000
C          C       0.65471   0.50001   0.07645   0.0000000000
C          C       0.67610   0.50001   0.09497   0.0000000000
C          C       0.69742   0.50001   0.07676   0.0000000000
C          C       0.69786   0.50001   0.03965   0.0000000000
C          C       0.15392   0.50001   0.53826   0.0000000000
C          C       0.17609   0.50001   0.51920   0.0000000000
C          C       0.15456   0.50001   0.57643   0.0000000000
C          C       0.17598   0.50001   0.59482   0.0000000000
C          C       0.19726   0.50001   0.57653   0.0000000000
C          C       0.19761   0.50001   0.53940   0.0000000000
O          O       0.71707   0.50001   0.90199   0.0000000000
O          O       0.21637   0.50001   0.40165   0.0000000000
O          O       0.28401   0.50001   0.09936   0.0000000000
O          O       0.78422   0.50001   0.59915   0.0000000000
O          O       0.28293   0.50001   0.90199   0.0000000000
O          O       0.78363   0.50001   0.40165   0.0000000000
O          O       0.71599   0.50001   0.09936   0.0000000000
O          O       0.21578   0.50001   0.59915   0.0000000000
B          B       0.70640   0.50001   0.86704   0.0000000000
B          B       0.20570   0.50001   0.36671   0.0000000000
B          B       0.29496   0.50001   0.13409   0.0000000000
B          B       0.79509   0.50001   0.63394   0.0000000000
B          B       0.29360   0.50001   0.86704   0.0000000000
B          B       0.79430   0.50001   0.36671   0.0000000000
B          B       0.70504   0.50001   0.13409   0.0000000000
B          B       0.20491   0.50001   0.63394   0.0000000000
O          O       0.68096   0.50001   0.87014   0.0000000000
O          O       0.18024   0.50001   0.36997   0.0000000000
O          O       0.32039   0.50001   0.13053   0.0000000000
O          O       0.82053   0.50001   0.63036   0.0000000000
O          O       0.31904   0.50001   0.87014   0.0000000000
O          O       0.81976   0.50001   0.36997   0.0000000000
O          O       0.67961   0.50001   0.13053   0.0000000000
O          O       0.17947   0.50001   0.63036   0.0000000000
