data_MC-COF-TP-E11E72
_audit_creation_date              0000-00-00
_audit_creation_method            'LanYouShi'
_symmetry_space_group_name_H-M    'P1'
_cell_length_a                    56.4146004
_cell_length_b                    37.4608002
_cell_length_c                    3.5901999
_cell_angle_alpha                 90.0000000
_cell_angle_beta                  90.0000000
_cell_angle_gamma                 90.0000000
loop_
_atom_site_label
_atom_site_type_symbol
_atom_site_fract_x
_atom_site_fract_y
_atom_site_fract_z
_atom_site_U_iso_or_equiv
_atom_site_adp_type
_atom_site_occupancy
        C1          C  0.6321461  0.0192307  0.4999967    0.00000       Uiso       1.00
        C3          C  0.6098084  0.0373506  0.4999967    0.00000       Uiso       1.00
        C4          C  0.5885575  0.0184562  0.4999967    0.00000       Uiso       1.00
        C1          C  0.1321459  0.5192314  0.4999967    0.00000       Uiso       1.00
        C2          C  0.1321459  0.4807699  0.4999967    0.00000       Uiso       1.00
        C3          C  0.1098083  0.4626501  0.4999967    0.00000       Uiso       1.00
        C4          C  0.1098083  0.5373512  0.4999967    0.00000       Uiso       1.00
        C5          C  0.0885573  0.4815444  0.4999967    0.00000       Uiso       1.00
        C6          C  0.0885573  0.5184568  0.4999967    0.00000       Uiso       1.00
        C1          C  0.3678542  0.9807705  0.4999967    0.00000       Uiso       1.00
        C3          C  0.3901919  0.9626507  0.4999967    0.00000       Uiso       1.00
        C4          C  0.4114429  0.9815450  0.4999967    0.00000       Uiso       1.00
        C1          C  0.8678544  0.4807699  0.4999967    0.00000       Uiso       1.00
        C2          C  0.8678544  0.5192314  0.4999967    0.00000       Uiso       1.00
        C3          C  0.8901921  0.5373512  0.4999967    0.00000       Uiso       1.00
        C4          C  0.8901921  0.4626501  0.4999967    0.00000       Uiso       1.00
        C5          C  0.9114430  0.5184568  0.4999967    0.00000       Uiso       1.00
        C6          C  0.9114430  0.4815444  0.4999967    0.00000       Uiso       1.00
        C1          C  0.3678542  0.0192307  0.4999967    0.00000       Uiso       1.00
        C3          C  0.3901919  0.0373506  0.4999967    0.00000       Uiso       1.00
        C4          C  0.4114429  0.0184562  0.4999967    0.00000       Uiso       1.00
        C1          C  0.6321461  0.9807705  0.4999967    0.00000       Uiso       1.00
        C3          C  0.6098084  0.9626507  0.4999967    0.00000       Uiso       1.00
        C4          C  0.5885575  0.9815450  0.4999967    0.00000       Uiso       1.00
        O1          O  0.5663062  0.0314954  0.4999967    0.00000       Uiso       1.00
        O1          O  0.0663060  0.5314961  0.4999967    0.00000       Uiso       1.00
        O1          O  0.4336942  0.9685058  0.4999967    0.00000       Uiso       1.00
        O1          O  0.9336943  0.4685052  0.4999967    0.00000       Uiso       1.00
        O1          O  0.4336942  0.0314954  0.4999967    0.00000       Uiso       1.00
        O1          O  0.9336943  0.5314961  0.4999967    0.00000       Uiso       1.00
        O1          O  0.5663062  0.9685058  0.4999967    0.00000       Uiso       1.00
        O1          O  0.0663060  0.4685052  0.4999967    0.00000       Uiso       1.00
        B1          B  0.5516027  0.0000000  0.4999967    0.00000       Uiso       1.00
        B1          B  0.0516025  0.5000006  0.4999967    0.00000       Uiso       1.00
        B1          B  0.4483976  0.0000000  0.4999967    0.00000       Uiso       1.00
        B1          B  0.9483978  0.5000006  0.4999967    0.00000       Uiso       1.00
        C7          C  0.6540982  0.0383172  0.4999967    0.00000       Uiso       1.00
        C8          C  0.6762161  0.0190865  0.4999967    0.00000       Uiso       1.00
        C9          C  0.6548467  0.0765097  0.4999967    0.00000       Uiso       1.00
       C10          C  0.6763376  0.0947770  0.4999967    0.00000       Uiso       1.00
       C11          C  0.6975646  0.0763206  0.4999967    0.00000       Uiso       1.00
       C12          C  0.6978051  0.0391586  0.4999967    0.00000       Uiso       1.00
        C7          C  0.1540980  0.5383178  0.4999967    0.00000       Uiso       1.00
        C8          C  0.1762159  0.5190871  0.4999967    0.00000       Uiso       1.00
        C9          C  0.1548466  0.5765103  0.4999967    0.00000       Uiso       1.00
       C10          C  0.1763374  0.5947776  0.4999967    0.00000       Uiso       1.00
       C11          C  0.1975645  0.5763212  0.4999967    0.00000       Uiso       1.00
       C12          C  0.1978049  0.5391593  0.4999967    0.00000       Uiso       1.00
        C7          C  0.3459021  0.9616841  0.4999967    0.00000       Uiso       1.00
        C8          C  0.3237843  0.9809148  0.4999967    0.00000       Uiso       1.00
        C9          C  0.3451536  0.9234916  0.4999967    0.00000       Uiso       1.00
       C10          C  0.3236627  0.9052243  0.4999967    0.00000       Uiso       1.00
       C11          C  0.3024357  0.9236807  0.4999967    0.00000       Uiso       1.00
       C12          C  0.3021953  0.9608427  0.4999967    0.00000       Uiso       1.00
        C7          C  0.8459023  0.4616835  0.4999967    0.00000       Uiso       1.00
        C8          C  0.8237844  0.4809141  0.4999967    0.00000       Uiso       1.00
        C9          C  0.8451537  0.4234909  0.4999967    0.00000       Uiso       1.00
       C10          C  0.8236629  0.4052237  0.4999967    0.00000       Uiso       1.00
       C11          C  0.8024358  0.4236801  0.4999967    0.00000       Uiso       1.00
       C12          C  0.8021954  0.4608420  0.4999967    0.00000       Uiso       1.00
        C7          C  0.3459021  0.0383172  0.4999967    0.00000       Uiso       1.00
        C8          C  0.3237843  0.0190865  0.4999967    0.00000       Uiso       1.00
        C9          C  0.3451536  0.0765097  0.4999967    0.00000       Uiso       1.00
       C10          C  0.3236627  0.0947770  0.4999967    0.00000       Uiso       1.00
       C11          C  0.3024357  0.0763206  0.4999967    0.00000       Uiso       1.00
       C12          C  0.3021953  0.0391586  0.4999967    0.00000       Uiso       1.00
        C7          C  0.8459023  0.5383178  0.4999967    0.00000       Uiso       1.00
        C8          C  0.8237844  0.5190871  0.4999967    0.00000       Uiso       1.00
        C9          C  0.8451537  0.5765103  0.4999967    0.00000       Uiso       1.00
       C10          C  0.8236629  0.5947776  0.4999967    0.00000       Uiso       1.00
       C11          C  0.8024358  0.5763212  0.4999967    0.00000       Uiso       1.00
       C12          C  0.8021954  0.5391593  0.4999967    0.00000       Uiso       1.00
        C7          C  0.6540982  0.9616841  0.4999967    0.00000       Uiso       1.00
        C8          C  0.6762161  0.9809148  0.4999967    0.00000       Uiso       1.00
        C9          C  0.6548467  0.9234916  0.4999967    0.00000       Uiso       1.00
       C10          C  0.6763376  0.9052243  0.4999967    0.00000       Uiso       1.00
       C11          C  0.6975646  0.9236807  0.4999967    0.00000       Uiso       1.00
       C12          C  0.6978051  0.9608427  0.4999967    0.00000       Uiso       1.00
        C7          C  0.1540980  0.4616835  0.4999967    0.00000       Uiso       1.00
        C8          C  0.1762159  0.4809141  0.4999967    0.00000       Uiso       1.00
        C9          C  0.1548466  0.4234909  0.4999967    0.00000       Uiso       1.00
       C10          C  0.1763374  0.4052237  0.4999967    0.00000       Uiso       1.00
       C11          C  0.1975645  0.4236801  0.4999967    0.00000       Uiso       1.00
       C12          C  0.1978049  0.4608420  0.4999967    0.00000       Uiso       1.00
        O3          O  0.7161892  0.0988150  0.4999967    0.00000       Uiso       1.00
        O3          O  0.2161890  0.5988156  0.4999967    0.00000       Uiso       1.00
        O3          O  0.2838111  0.9011863  0.4999967    0.00000       Uiso       1.00
        O3          O  0.7838113  0.4011857  0.4999967    0.00000       Uiso       1.00
        O3          O  0.2838111  0.0988150  0.4999967    0.00000       Uiso       1.00
        O3          O  0.7838113  0.5988156  0.4999967    0.00000       Uiso       1.00
        O3          O  0.7161892  0.9011863  0.4999967    0.00000       Uiso       1.00
        O3          O  0.2161890  0.4011857  0.4999967    0.00000       Uiso       1.00
        B2          B  0.7054195  0.1337214  0.4999967    0.00000       Uiso       1.00
        B2          B  0.2054193  0.6337220  0.4999967    0.00000       Uiso       1.00
        B2          B  0.2945808  0.8662799  0.4999967    0.00000       Uiso       1.00
        B2          B  0.7945810  0.3662793  0.4999967    0.00000       Uiso       1.00
        B2          B  0.2945808  0.1337214  0.4999967    0.00000       Uiso       1.00
        B2          B  0.7945810  0.6337220  0.4999967    0.00000       Uiso       1.00
        B2          B  0.7054195  0.8662799  0.4999967    0.00000       Uiso       1.00
        B2          B  0.2054193  0.3662793  0.4999967    0.00000       Uiso       1.00
        O4          O  0.6799611  0.1303144  0.4999967    0.00000       Uiso       1.00
        O4          O  0.1799610  0.6303151  0.4999967    0.00000       Uiso       1.00
        O4          O  0.3200392  0.8696869  0.4999967    0.00000       Uiso       1.00
        O4          O  0.8200393  0.3696862  0.4999967    0.00000       Uiso       1.00
        O4          O  0.3200392  0.1303144  0.4999967    0.00000       Uiso       1.00
        O4          O  0.8200393  0.6303151  0.4999967    0.00000       Uiso       1.00
        O4          O  0.6799611  0.8696869  0.4999967    0.00000       Uiso       1.00
        O4          O  0.1799610  0.3696862  0.4999967    0.00000       Uiso       1.00
        H1          H  0.6092120  0.9322321  0.4999967    0.00000       Uiso       1.00
        H3          H  0.6376522  0.9075047  0.4999967    0.00000       Uiso       1.00
        H4          H  0.7155957  0.9752746  0.4999967    0.00000       Uiso       1.00
        H1          H  0.1092119  0.4322315  0.4999967    0.00000       Uiso       1.00
        H2          H  0.1092119  0.5677698  0.4999967    0.00000       Uiso       1.00
        H3          H  0.1376521  0.5924972  0.4999967    0.00000       Uiso       1.00
        H4          H  0.1376521  0.4075041  0.4999967    0.00000       Uiso       1.00
        H5          H  0.2155956  0.5247273  0.4999967    0.00000       Uiso       1.00
        H6          H  0.2155956  0.4752740  0.4999967    0.00000       Uiso       1.00
        H1          H  0.3907883  0.0677691  0.4999967    0.00000       Uiso       1.00
        H3          H  0.3623481  0.0924965  0.4999967    0.00000       Uiso       1.00
        H4          H  0.2844046  0.0247266  0.4999967    0.00000       Uiso       1.00
        H1          H  0.8907884  0.5677698  0.4999967    0.00000       Uiso       1.00
        H2          H  0.8907884  0.4322315  0.4999967    0.00000       Uiso       1.00
        H3          H  0.8623483  0.4075041  0.4999967    0.00000       Uiso       1.00
        H4          H  0.8623483  0.5924972  0.4999967    0.00000       Uiso       1.00
        H5          H  0.7844048  0.4752740  0.4999967    0.00000       Uiso       1.00
        H6          H  0.7844048  0.5247273  0.4999967    0.00000       Uiso       1.00
        H1          H  0.3907883  0.9322321  0.4999967    0.00000       Uiso       1.00
        H3          H  0.3623481  0.9075047  0.4999967    0.00000       Uiso       1.00
        H4          H  0.2844046  0.9752746  0.4999967    0.00000       Uiso       1.00
        H1          H  0.6092120  0.0677691  0.4999967    0.00000       Uiso       1.00
        H3          H  0.6376522  0.0924965  0.4999967    0.00000       Uiso       1.00
        H4          H  0.7155957  0.0247266  0.4999967    0.00000       Uiso       1.00
        C1          C  0.4748064  0.0000000  0.4999967    0.00000       Uiso       1.00
        C2          C  0.9748066  0.5000006  0.4999967    0.00000       Uiso       1.00
        C3          C  0.5251939  0.0000000  0.4999967    0.00000       Uiso       1.00
        C4          C  0.0251938  0.5000006  0.4999967    0.00000       Uiso       1.00
        C5          C  0.4875250  0.0324954  0.4999967    0.00000       Uiso       1.00
        C6          C  0.9875252  0.5324961  0.4999967    0.00000       Uiso       1.00
        C7          C  0.5124753  0.9675058  0.4999967    0.00000       Uiso       1.00
        C8          C  0.0124751  0.4675052  0.4999967    0.00000       Uiso       1.00
        C9          C  0.5124753  0.0324954  0.4999967    0.00000       Uiso       1.00
       C10          C  0.0124751  0.5324961  0.4999967    0.00000       Uiso       1.00
       C11          C  0.4875250  0.9675058  0.4999967    0.00000       Uiso       1.00
       C12          C  0.9875252  0.4675052  0.4999967    0.00000       Uiso       1.00
        H1          H  0.4775794  0.0589862  0.4999967    0.00000       Uiso       1.00
        H2          H  0.9775796  0.5589868  0.4999967    0.00000       Uiso       1.00
        H3          H  0.5224209  0.9410150  0.4999967    0.00000       Uiso       1.00
        H4          H  0.0224208  0.4410144  0.4999967    0.00000       Uiso       1.00
        H5          H  0.5224209  0.0589862  0.4999967    0.00000       Uiso       1.00
        H6          H  0.0224208  0.5589868  0.4999967    0.00000       Uiso       1.00
        H7          H  0.4775794  0.9410150  0.4999967    0.00000       Uiso       1.00
        H8          H  0.9775796  0.4410144  0.4999967    0.00000       Uiso       1.00
       C13          C  0.7813711  0.6681773  0.4999967    0.00000       Uiso       1.00
       C14          C  0.2813708  0.1681767  0.4999967    0.00000       Uiso       1.00
       C15          C  0.2186293  0.3318240  0.4999967    0.00000       Uiso       1.00
       C16          C  0.7186295  0.8318246  0.4999967    0.00000       Uiso       1.00
       C17          C  0.2186293  0.6681773  0.4999967    0.00000       Uiso       1.00
       C18          C  0.7186295  0.1681767  0.4999967    0.00000       Uiso       1.00
       C19          C  0.7813711  0.3318240  0.4999967    0.00000       Uiso       1.00
       C20          C  0.2813708  0.8318246  0.4999967    0.00000       Uiso       1.00
       C21          C  0.7562975  0.6682560  0.4999967    0.00000       Uiso       1.00
       C22          C  0.2562973  0.1682554  0.4999967    0.00000       Uiso       1.00
       C23          C  0.2437029  0.3317452  0.4999967    0.00000       Uiso       1.00
       C24          C  0.7437031  0.8317459  0.4999967    0.00000       Uiso       1.00
       C25          C  0.2437029  0.6682560  0.4999967    0.00000       Uiso       1.00
       C26          C  0.7437031  0.1682554  0.4999967    0.00000       Uiso       1.00
       C27          C  0.7562975  0.3317452  0.4999967    0.00000       Uiso       1.00
       C28          C  0.2562973  0.8317459  0.4999967    0.00000       Uiso       1.00
       C29          C  0.7816364  0.7338200  0.4999967    0.00000       Uiso       1.00
       C30          C  0.2816362  0.2338194  0.4999967    0.00000       Uiso       1.00
       C31          C  0.2183640  0.2661813  0.4999967    0.00000       Uiso       1.00
       C32          C  0.7183641  0.7661819  0.4999967    0.00000       Uiso       1.00
       C33          C  0.2183640  0.7338200  0.4999967    0.00000       Uiso       1.00
       C34          C  0.7183641  0.2338194  0.4999967    0.00000       Uiso       1.00
       C35          C  0.7816364  0.2661813  0.4999967    0.00000       Uiso       1.00
       C36          C  0.2816362  0.7661819  0.4999967    0.00000       Uiso       1.00
        H9          H  0.7461572  0.6419331  0.4999967    0.00000       Uiso       1.00
       H10          H  0.2461571  0.1419325  0.4999967    0.00000       Uiso       1.00
       H11          H  0.2538431  0.3580682  0.4999967    0.00000       Uiso       1.00
       H12          H  0.7538432  0.8580688  0.4999967    0.00000       Uiso       1.00
       H13          H  0.2538431  0.6419331  0.4999967    0.00000       Uiso       1.00
       H14          H  0.7538432  0.1419325  0.4999967    0.00000       Uiso       1.00
       H15          H  0.7461572  0.3580682  0.4999967    0.00000       Uiso       1.00
       H16          H  0.2461571  0.8580688  0.4999967    0.00000       Uiso       1.00
       C37          C  0.7938615  0.7009184  0.4999967    0.00000       Uiso       1.00
       C38          C  0.2938614  0.2009178  0.4999967    0.00000       Uiso       1.00
       C39          C  0.2061388  0.2990828  0.4999967    0.00000       Uiso       1.00
       C40          C  0.7061390  0.7990835  0.4999967    0.00000       Uiso       1.00
       C41          C  0.2061388  0.7009184  0.4999967    0.00000       Uiso       1.00
       C42          C  0.7061390  0.2009178  0.4999967    0.00000       Uiso       1.00
       C43          C  0.7938615  0.2990828  0.4999967    0.00000       Uiso       1.00
       C44          C  0.2938614  0.7990835  0.4999967    0.00000       Uiso       1.00
       C45          C  0.7434887  0.7006501  0.4999967    0.00000       Uiso       1.00
       C46          C  0.2434885  0.2006495  0.4999967    0.00000       Uiso       1.00
       C47          C  0.2565117  0.2993512  0.4999967    0.00000       Uiso       1.00
       C48          C  0.7565119  0.7993518  0.4999967    0.00000       Uiso       1.00
       C49          C  0.2565117  0.7006501  0.4999967    0.00000       Uiso       1.00
       C50          C  0.7565119  0.2006495  0.4999967    0.00000       Uiso       1.00
       C51          C  0.7434887  0.2993512  0.4999967    0.00000       Uiso       1.00
       C52          C  0.2434885  0.7993518  0.4999967    0.00000       Uiso       1.00
       H17          H  0.8140690  0.7009833  0.4999967    0.00000       Uiso       1.00
       H18          H  0.3140689  0.2009826  0.4999967    0.00000       Uiso       1.00
       H19          H  0.1859313  0.2990180  0.4999967    0.00000       Uiso       1.00
       H20          H  0.6859314  0.7990187  0.4999967    0.00000       Uiso       1.00
       H21          H  0.1859313  0.7009833  0.4999967    0.00000       Uiso       1.00
       H22          H  0.6859314  0.2009826  0.4999967    0.00000       Uiso       1.00
       H23          H  0.8140690  0.2990180  0.4999967    0.00000       Uiso       1.00
       H24          H  0.3140689  0.7990187  0.4999967    0.00000       Uiso       1.00
       C53          C  0.7563441  0.7334543  0.4999967    0.00000       Uiso       1.00
       C54          C  0.2563440  0.2334536  0.4999967    0.00000       Uiso       1.00
       C55          C  0.2436562  0.2665470  0.4999967    0.00000       Uiso       1.00
       C56          C  0.7436563  0.7665477  0.4999967    0.00000       Uiso       1.00
       C57          C  0.2436562  0.7334543  0.4999967    0.00000       Uiso       1.00
       C58          C  0.7436563  0.2334536  0.4999967    0.00000       Uiso       1.00
       C59          C  0.7563441  0.2665470  0.4999967    0.00000       Uiso       1.00
       C60          C  0.2563440  0.7665477  0.4999967    0.00000       Uiso       1.00
       C61          C  0.7058138  0.7333350  0.4999967    0.00000       Uiso       1.00
       C62          C  0.2058136  0.2333344  0.4999967    0.00000       Uiso       1.00
       C63          C  0.2941865  0.2666663  0.4999967    0.00000       Uiso       1.00
       C64          C  0.7941867  0.7666669  0.4999967    0.00000       Uiso       1.00
       C65          C  0.2941865  0.7333350  0.4999967    0.00000       Uiso       1.00
       C66          C  0.7941867  0.2333344  0.4999967    0.00000       Uiso       1.00
       C67          C  0.7058138  0.2666663  0.4999967    0.00000       Uiso       1.00
       C68          C  0.2058136  0.7666669  0.4999967    0.00000       Uiso       1.00
       C69          C  0.7816761  0.7992981  0.4999967    0.00000       Uiso       1.00
       C70          C  0.2816759  0.2992975  0.4999967    0.00000       Uiso       1.00
       C71          C  0.2183243  0.2007032  0.4999967    0.00000       Uiso       1.00
       C72          C  0.7183244  0.7007038  0.4999967    0.00000       Uiso       1.00
       C73          C  0.2183243  0.7992981  0.4999967    0.00000       Uiso       1.00
       C74          C  0.7183244  0.2992975  0.4999967    0.00000       Uiso       1.00
       C75          C  0.7816761  0.2007032  0.4999967    0.00000       Uiso       1.00
       C76          C  0.2816759  0.7007038  0.4999967    0.00000       Uiso       1.00
       H25          H  0.6856062  0.7332906  0.4999967    0.00000       Uiso       1.00
       H26          H  0.7918046  0.8256312  0.4999967    0.00000       Uiso       1.00
       H27          H  0.1856061  0.2332900  0.4999967    0.00000       Uiso       1.00
       H28          H  0.2918044  0.3256306  0.4999967    0.00000       Uiso       1.00
       H29          H  0.3143940  0.2667107  0.4999967    0.00000       Uiso       1.00
       H30          H  0.2081957  0.1743700  0.4999967    0.00000       Uiso       1.00
       H31          H  0.8143942  0.7667113  0.4999967    0.00000       Uiso       1.00
       H32          H  0.7081959  0.6743706  0.4999967    0.00000       Uiso       1.00
       H33          H  0.3143940  0.7332906  0.4999967    0.00000       Uiso       1.00
       H34          H  0.2081957  0.8256312  0.4999967    0.00000       Uiso       1.00
       H35          H  0.8143942  0.2332900  0.4999967    0.00000       Uiso       1.00
       H36          H  0.7081959  0.3256306  0.4999967    0.00000       Uiso       1.00
       H37          H  0.6856062  0.2667107  0.4999967    0.00000       Uiso       1.00
       H38          H  0.7918046  0.1743700  0.4999967    0.00000       Uiso       1.00
       H39          H  0.1856061  0.7667113  0.4999967    0.00000       Uiso       1.00
       H40          H  0.2918044  0.6743706  0.4999967    0.00000       Uiso       1.00
