data_MC-COF-TP-E12E21
_audit_creation_date              0000-00-00
_audit_creation_method            'LanYouShi'
_symmetry_space_group_name_H-M    'P1'
_cell_length_a                    30.1826000
_cell_length_b                    52.2779007
_cell_length_c                    3.6833999
_cell_angle_alpha                 90.9446030
_cell_angle_beta                  111.6256027
_cell_angle_gamma                 90.0121002
loop_
_atom_site_label
_atom_site_type_symbol
_atom_site_fract_x
_atom_site_fract_y
_atom_site_fract_z
_atom_site_U_iso_or_equiv
_atom_site_adp_type
_atom_site_occupancy
        C1          C  0.5237386  0.8095066  0.4774347    0.00000       Uiso       1.00
        C2          C  0.5485433  0.8332713  0.4933818    0.00000       Uiso       1.00
        C3          C  0.5966061  0.8322456  0.5091689    0.00000       Uiso       1.00
        C4          C  0.6186115  0.8089446  0.4974374    0.00000       Uiso       1.00
        C5          C  0.5942613  0.7861705  0.4705911    0.00000       Uiso       1.00
        C6          C  0.5475794  0.7861421  0.4595037    0.00000       Uiso       1.00
        C1          C  0.0230795  0.3092394  0.4779049    0.00000       Uiso       1.00
        C2          C  0.0479566  0.3330089  0.4963475    0.00000       Uiso       1.00
        C3          C  0.0960491  0.3320062  0.5132597    0.00000       Uiso       1.00
        C4          C  0.1180161  0.3087343  0.5001321    0.00000       Uiso       1.00
        C5          C  0.0936674  0.2859255  0.4707699    0.00000       Uiso       1.00
        C6          C  0.0469148  0.2858846  0.4586038    0.00000       Uiso       1.00
        C1          C  0.5224666  0.1908208  0.4654197    0.00000       Uiso       1.00
        C2          C  0.5471210  0.1670783  0.4792317    0.00000       Uiso       1.00
        C3          C  0.5951256  0.1681047  0.4939097    0.00000       Uiso       1.00
        C4          C  0.6173124  0.1913670  0.4855941    0.00000       Uiso       1.00
        C5          C  0.5932363  0.2141393  0.4621720    0.00000       Uiso       1.00
        C6          C  0.5465150  0.2141555  0.4507981    0.00000       Uiso       1.00
        C1          C  0.0236218  0.6905586  0.4667960    0.00000       Uiso       1.00
        C2          C  0.0483772  0.6668252  0.4821932    0.00000       Uiso       1.00
        C3          C  0.0964264  0.6678789  0.4979195    0.00000       Uiso       1.00
        C4          C  0.1185617  0.6911517  0.4888891    0.00000       Uiso       1.00
        C5          C  0.0943584  0.7138995  0.4636001    0.00000       Uiso       1.00
        C6          C  0.0475933  0.7138979  0.4511473    0.00000       Uiso       1.00
        O1          O  0.6215855  0.7660335  0.4571203    0.00000       Uiso       1.00
        O1          O  0.1210997  0.2658337  0.4564455    0.00000       Uiso       1.00
        O1          O  0.6208827  0.2342212  0.4524143    0.00000       Uiso       1.00
        O1          O  0.1219328  0.7339926  0.4531755    0.00000       Uiso       1.00
        B1          B  0.6661488  0.7772257  0.4781329    0.00000       Uiso       1.00
        B1          B  0.1656666  0.2771602  0.4798749    0.00000       Uiso       1.00
        B1          B  0.6652901  0.2229246  0.4724184    0.00000       Uiso       1.00
        B1          B  0.1664468  0.7227442  0.4749855    0.00000       Uiso       1.00
        O2          O  0.6630213  0.8046740  0.5045168    0.00000       Uiso       1.00
        O2          O  0.1624778  0.3045834  0.5082658    0.00000       Uiso       1.00
        O2          O  0.6617857  0.1955320  0.4939291    0.00000       Uiso       1.00
        O2          O  0.1630703  0.6953531  0.4980371    0.00000       Uiso       1.00
        C7          C  0.4763119  0.8096597  0.4764051    0.00000       Uiso       1.00
        C8          C  0.4519744  0.8335438  0.4598188    0.00000       Uiso       1.00
        C9          C  0.4519835  0.7864980  0.4941827    0.00000       Uiso       1.00
       C10          C  0.4052679  0.7867978  0.4823698    0.00000       Uiso       1.00
       C11          C  0.3814193  0.8096741  0.4561709    0.00000       Uiso       1.00
       C12          C  0.4039518  0.8327999  0.4454636    0.00000       Uiso       1.00
        C7          C  0.9756157  0.3094108  0.4760656    0.00000       Uiso       1.00
        C8          C  0.9513857  0.3333138  0.4615754    0.00000       Uiso       1.00
        C9          C  0.9511525  0.2862470  0.4912561    0.00000       Uiso       1.00
       C10          C  0.9044501  0.2865740  0.4799097    0.00000       Uiso       1.00
       C11          C  0.8807588  0.3094777  0.4563531    0.00000       Uiso       1.00
       C12          C  0.9033850  0.3326001  0.4475798    0.00000       Uiso       1.00
        C7          C  0.4750124  0.1906445  0.4638124    0.00000       Uiso       1.00
        C8          C  0.4505676  0.1667151  0.4449849    0.00000       Uiso       1.00
        C9          C  0.4507647  0.2138306  0.4835512    0.00000       Uiso       1.00
       C10          C  0.4040427  0.2134859  0.4717314    0.00000       Uiso       1.00
       C11          C  0.3800854  0.1905458  0.4425630    0.00000       Uiso       1.00
       C12          C  0.4024923  0.1674105  0.4291251    0.00000       Uiso       1.00
        C7          C  0.9761372  0.6903709  0.4645717    0.00000       Uiso       1.00
        C8          C  0.9517648  0.6664255  0.4462092    0.00000       Uiso       1.00
        C9          C  0.9518074  0.7135516  0.4835298    0.00000       Uiso       1.00
       C10          C  0.9050697  0.7131872  0.4714569    0.00000       Uiso       1.00
       C11          C  0.8811994  0.6902250  0.4422584    0.00000       Uiso       1.00
       C12          C  0.9036494  0.6670991  0.4292972    0.00000       Uiso       1.00
        O3          O  0.3368697  0.8056895  0.4478768    0.00000       Uiso       1.00
        O3          O  0.8362162  0.3055375  0.4483570    0.00000       Uiso       1.00
        O3          O  0.3355589  0.1944745  0.4348411    0.00000       Uiso       1.00
        O3          O  0.8366797  0.6941081  0.4344015    0.00000       Uiso       1.00
        B2          B  0.3331318  0.7783216  0.4722699    0.00000       Uiso       1.00
        B2          B  0.8323028  0.2781650  0.4701311    0.00000       Uiso       1.00
        B2          B  0.3319574  0.2218798  0.4632278    0.00000       Uiso       1.00
        B2          B  0.8328873  0.7215009  0.4628305    0.00000       Uiso       1.00
        O4          O  0.3774690  0.7668578  0.4941795    0.00000       Uiso       1.00
        O4          O  0.8765299  0.2666491  0.4901272    0.00000       Uiso       1.00
        O4          O  0.3763277  0.2334248  0.4862919    0.00000       Uiso       1.00
        O4          O  0.8772306  0.7330867  0.4858030    0.00000       Uiso       1.00
       C13          C  0.5248600  0.8570388  0.4887741    0.00000       Uiso       1.00
       C14          C  0.4760008  0.8571621  0.4611436    0.00000       Uiso       1.00
       C15          C  0.4529022  0.8813135  0.4385432    0.00000       Uiso       1.00
       C16          C  0.4771123  0.9042575  0.4521002    0.00000       Uiso       1.00
       C17          C  0.5243034  0.9041442  0.4872935    0.00000       Uiso       1.00
       C18          C  0.5482607  0.8810939  0.5063941    0.00000       Uiso       1.00
       C13          C  0.0243601  0.3567795  0.4931311    0.00000       Uiso       1.00
       C17          C  0.0240046  0.4038669  0.4946074    0.00000       Uiso       1.00
       C18          C  0.0478853  0.3808152  0.5129095    0.00000       Uiso       1.00
       C13          C  0.5234292  0.1433019  0.4744928    0.00000       Uiso       1.00
       C14          C  0.4745645  0.1430950  0.4465208    0.00000       Uiso       1.00
       C15          C  0.4515132  0.1188760  0.4251151    0.00000       Uiso       1.00
       C16          C  0.4758013  0.0959703  0.4404215    0.00000       Uiso       1.00
       C17          C  0.5230031  0.0962152  0.4760016    0.00000       Uiso       1.00
       C18          C  0.5468926  0.1193063  0.4935603    0.00000       Uiso       1.00
       C13          C  0.0247581  0.6430345  0.4781645    0.00000       Uiso       1.00
       C17          C  0.0244585  0.5959323  0.4822047    0.00000       Uiso       1.00
       C18          C  0.0482923  0.6190390  0.4987949    0.00000       Uiso       1.00
       C14          C  0.9754838  0.3569330  0.4647385    0.00000       Uiso       1.00
       C15          C  0.9524598  0.3811040  0.4430588    0.00000       Uiso       1.00
       C16          C  0.9767792  0.4040390  0.4583072    0.00000       Uiso       1.00
       C14          C  0.9758658  0.6428177  0.4493689    0.00000       Uiso       1.00
       C15          C  0.9528721  0.6185981  0.4288871    0.00000       Uiso       1.00
       C16          C  0.9772348  0.5957044  0.4459394    0.00000       Uiso       1.00
        O5          O  0.5408952  0.9282067  0.4963748    0.00000       Uiso       1.00
        O5          O  0.0407849  0.4278865  0.5053175    0.00000       Uiso       1.00
        O5          O  0.5397807  0.0722146  0.4876041    0.00000       Uiso       1.00
        O5          O  0.0412460  0.5719121  0.4954016    0.00000       Uiso       1.00
        B3          B  0.5009443  0.9443615  0.4640432    0.00000       Uiso       1.00
        B3          B  0.0009046  0.4440929  0.4726738    0.00000       Uiso       1.00
        B3          B  0.4999465  0.0559397  0.4568368    0.00000       Uiso       1.00
        B3          B  0.0013786  0.5556619  0.4648884    0.00000       Uiso       1.00
        O6          O  0.4608031  0.9284109  0.4364367    0.00000       Uiso       1.00
        O6          O  0.9606034  0.4282207  0.4434588    0.00000       Uiso       1.00
        O6          O  0.4596529  0.0717551  0.4271247    0.00000       Uiso       1.00
        O6          O  0.9610795  0.5715089  0.4336981    0.00000       Uiso       1.00
        H1          H  0.6170840  0.8479545  0.5260142    0.00000       Uiso       1.00
        H2          H  0.5323240  0.7685643  0.4347868    0.00000       Uiso       1.00
        H3          H  0.4668887  0.7688913  0.5190251    0.00000       Uiso       1.00
        H4          H  0.3838665  0.8486063  0.4299325    0.00000       Uiso       1.00
        H5          H  0.4184086  0.8832658  0.4123573    0.00000       Uiso       1.00
        H6          H  0.5827620  0.8828959  0.5317952    0.00000       Uiso       1.00
        H1          H  0.1166014  0.3477082  0.5319757    0.00000       Uiso       1.00
        H2          H  0.0315899  0.2683136  0.4321912    0.00000       Uiso       1.00
        H6          H  0.0824215  0.3826179  0.5394195    0.00000       Uiso       1.00
        H1          H  0.6154658  0.1524236  0.5077995    0.00000       Uiso       1.00
        H2          H  0.5313805  0.2316910  0.4284422    0.00000       Uiso       1.00
        H3          H  0.4657473  0.2314902  0.5100142    0.00000       Uiso       1.00
        H4          H  0.3822847  0.1515703  0.4107972    0.00000       Uiso       1.00
        H5          H  0.4170324  0.1168534  0.3991345    0.00000       Uiso       1.00
        H6          H  0.5814158  0.1175586  0.5198282    0.00000       Uiso       1.00
        H1          H  0.1168214  0.6522052  0.5130893    0.00000       Uiso       1.00
        H2          H  0.0323737  0.7314180  0.4273714    0.00000       Uiso       1.00
        H6          H  0.0828388  0.6173044  0.5255058    0.00000       Uiso       1.00
        H3          H  0.9659588  0.2686209  0.5140254    0.00000       Uiso       1.00
        H4          H  0.8833941  0.3484209  0.4339543    0.00000       Uiso       1.00
        H5          H  0.9179545  0.3830766  0.4162894    0.00000       Uiso       1.00
        H3          H  0.9667647  0.7312181  0.5098579    0.00000       Uiso       1.00
        H4          H  0.8834447  0.6512523  0.4106759    0.00000       Uiso       1.00
        H5          H  0.9183778  0.6165569  0.4025017    0.00000       Uiso       1.00
        C1          C  0.7902545  0.7355618  0.4677888    0.00000       Uiso       1.00
        C2          C  0.2893935  0.2359859  0.4680464    0.00000       Uiso       1.00
        C3          C  0.7895671  0.2640668  0.4714778    0.00000       Uiso       1.00
        C4          C  0.2904870  0.7641492  0.4740689    0.00000       Uiso       1.00
        C5          C  0.7480359  0.7226051  0.4384782    0.00000       Uiso       1.00
        C6          C  0.2474578  0.2226416  0.4367101    0.00000       Uiso       1.00
        C7          C  0.7478112  0.2773820  0.4440061    0.00000       Uiso       1.00
        C8          C  0.2485072  0.7773516  0.4432402    0.00000       Uiso       1.00
        C9          C  0.7506531  0.7760358  0.5037476    0.00000       Uiso       1.00
       C10          C  0.2501024  0.2763041  0.5067723    0.00000       Uiso       1.00
       C11          C  0.7497116  0.2238002  0.4987957    0.00000       Uiso       1.00
       C12          C  0.2510461  0.7238092  0.5053539    0.00000       Uiso       1.00
        H1          H  0.2459467  0.2031117  0.4112942    0.00000       Uiso       1.00
        H2          H  0.7465681  0.2968928  0.4240128    0.00000       Uiso       1.00
        H3          H  0.2470391  0.7968358  0.4205915    0.00000       Uiso       1.00
       C13          C  0.7910399  0.7625471  0.5011715    0.00000       Uiso       1.00
       C14          C  0.2904278  0.2629155  0.5038107    0.00000       Uiso       1.00
       C15          C  0.7902278  0.2371772  0.4995944    0.00000       Uiso       1.00
       C16          C  0.2914669  0.7372789  0.5060244    0.00000       Uiso       1.00
       C17          C  0.7080349  0.7359452  0.4393229    0.00000       Uiso       1.00
       C18          C  0.2071176  0.2360361  0.4396751    0.00000       Uiso       1.00
       C19          C  0.7072877  0.2640004  0.4432845    0.00000       Uiso       1.00
       C20          C  0.2080775  0.7638777  0.4426548    0.00000       Uiso       1.00
        H4          H  0.8209575  0.7725834  0.5222147    0.00000       Uiso       1.00
        H5          H  0.3204459  0.2729940  0.5267833    0.00000       Uiso       1.00
        H6          H  0.8200929  0.2271216  0.5195977    0.00000       Uiso       1.00
        H7          H  0.3215323  0.7273005  0.5290302    0.00000       Uiso       1.00
       C21          C  0.7084883  0.7628674  0.4733905    0.00000       Uiso       1.00
       C22          C  0.2081528  0.2629659  0.4752825    0.00000       Uiso       1.00
       C23          C  0.7079534  0.2371105  0.4713611    0.00000       Uiso       1.00
       C24          C  0.2090528  0.7370042  0.4742163    0.00000       Uiso       1.00
        H8          H  0.1770802  0.2259848  0.4166412    0.00000       Uiso       1.00
        H9          H  0.6773947  0.2740373  0.4230377    0.00000       Uiso       1.00
       H10          H  0.1779940  0.7738184  0.4197579    0.00000       Uiso       1.00
       H11          H  0.7522533  0.7955431  0.5276886    0.00000       Uiso       1.00
       H12          H  0.2516299  0.2958440  0.5320271    0.00000       Uiso       1.00
       H13          H  0.7509696  0.2042872  0.5185274    0.00000       Uiso       1.00
       H14          H  0.2525564  0.7043168  0.5280563    0.00000       Uiso       1.00
       C25          C  0.5003934  0.0274823  0.4565240    0.00000       Uiso       1.00
       C26          C  0.0015830  0.5272014  0.4656865    0.00000       Uiso       1.00
       C27          C  0.5009396  0.9728183  0.4599518    0.00000       Uiso       1.00
       C28          C  0.0012790  0.4725404  0.4693760    0.00000       Uiso       1.00
       C29          C  0.5415583  0.0136363  0.4828855    0.00000       Uiso       1.00
       C30          C  0.0425823  0.5131468  0.4936201    0.00000       Uiso       1.00
       C31          C  0.5418127  0.9869425  0.4844247    0.00000       Uiso       1.00
       C32          C  0.0424326  0.4864523  0.4952753    0.00000       Uiso       1.00
       C33          C  0.4594972  0.9865229  0.4326995    0.00000       Uiso       1.00
       C34          C  0.9600074  0.4864409  0.4409703    0.00000       Uiso       1.00
       C35          C  0.4592145  0.0135161  0.4309703    0.00000       Uiso       1.00
       C36          C  0.9601612  0.5134310  0.4390570    0.00000       Uiso       1.00
        N1          N  0.5838770  0.0231848  0.5094228    0.00000       Uiso       1.00
        N2          N  0.0850655  0.5225132  0.5214019    0.00000       Uiso       1.00
        N3          N  0.5842860  0.9776456  0.5119637    0.00000       Uiso       1.00
        N4          N  0.0848198  0.4769699  0.5239897    0.00000       Uiso       1.00
        S1          S  0.6247127  0.0005419  0.5380988    0.00000       Uiso       1.00
        S2          S  0.1256159  0.4996836  0.5514035    0.00000       Uiso       1.00
        N5          N  0.7401388  0.6972852  0.4063178    0.00000       Uiso       1.00
        S3          S  0.6848571  0.6889794  0.3733593    0.00000       Uiso       1.00
        N6          N  0.6718194  0.7200490  0.4056704    0.00000       Uiso       1.00
       H18          H  0.4288104  0.0228651  0.4137561    0.00000       Uiso       1.00
       H18          H  0.9298627  0.5229672  0.4205317    0.00000       Uiso       1.00
       H18          H  0.4293046  0.9769422  0.4167114    0.00000       Uiso       1.00
       H18          H  0.9295933  0.4770580  0.4239260    0.00000       Uiso       1.00
