data_crystal
 
_cell_length_a    30.18260
_cell_length_b    52.27790
_cell_length_c    3.68340
_cell_angle_alpha 90.94460
_cell_angle_beta  111.62560
_cell_angle_gamma 90.01210
 
_symmetry_space_group_name_Hall 'P 1'
_symmetry_space_group_name_H-M  'P 1'
 
loop_
_symmetry_equiv_pos_as_xyz
 'x,y,z' 
 
loop_
_atom_site_label
_atom_site_type_symbol
_atom_site_fract_x
_atom_site_fract_y
_atom_site_fract_z
_atom_site_charge
C          C       0.52374   0.80951   0.47743   0.0000000000
C          C       0.54854   0.83327   0.49338   0.0000000000
C          C       0.59661   0.83225   0.50917   0.0000000000
C          C       0.61861   0.80894   0.49744   0.0000000000
C          C       0.59426   0.78617   0.47059   0.0000000000
C          C       0.54758   0.78614   0.45950   0.0000000000
C          C       0.02308   0.30924   0.47790   0.0000000000
C          C       0.04796   0.33301   0.49635   0.0000000000
C          C       0.09605   0.33201   0.51326   0.0000000000
C          C       0.11802   0.30873   0.50013   0.0000000000
C          C       0.09367   0.28593   0.47077   0.0000000000
C          C       0.04691   0.28588   0.45860   0.0000000000
C          C       0.52247   0.19082   0.46542   0.0000000000
C          C       0.54712   0.16708   0.47923   0.0000000000
C          C       0.59513   0.16810   0.49391   0.0000000000
C          C       0.61731   0.19137   0.48559   0.0000000000
C          C       0.59324   0.21414   0.46217   0.0000000000
C          C       0.54651   0.21416   0.45080   0.0000000000
C          C       0.02362   0.69056   0.46680   0.0000000000
C          C       0.04838   0.66683   0.48219   0.0000000000
C          C       0.09643   0.66788   0.49792   0.0000000000
C          C       0.11856   0.69115   0.48889   0.0000000000
C          C       0.09436   0.71390   0.46360   0.0000000000
C          C       0.04759   0.71390   0.45115   0.0000000000
O          O       0.62159   0.76603   0.45712   0.0000000000
O          O       0.12110   0.26583   0.45645   0.0000000000
O          O       0.62088   0.23422   0.45241   0.0000000000
O          O       0.12193   0.73399   0.45318   0.0000000000
B          B       0.66615   0.77723   0.47813   0.0000000000
B          B       0.16567   0.27716   0.47987   0.0000000000
B          B       0.66529   0.22292   0.47242   0.0000000000
B          B       0.16645   0.72274   0.47499   0.0000000000
O          O       0.66302   0.80467   0.50452   0.0000000000
O          O       0.16248   0.30458   0.50827   0.0000000000
O          O       0.66179   0.19553   0.49393   0.0000000000
O          O       0.16307   0.69535   0.49804   0.0000000000
C          C       0.47631   0.80966   0.47641   0.0000000000
C          C       0.45197   0.83354   0.45982   0.0000000000
C          C       0.45198   0.78650   0.49418   0.0000000000
C          C       0.40527   0.78680   0.48237   0.0000000000
C          C       0.38142   0.80967   0.45617   0.0000000000
C          C       0.40395   0.83280   0.44546   0.0000000000
C          C       0.97562   0.30941   0.47607   0.0000000000
C          C       0.95139   0.33331   0.46158   0.0000000000
C          C       0.95115   0.28625   0.49126   0.0000000000
C          C       0.90445   0.28657   0.47991   0.0000000000
C          C       0.88076   0.30948   0.45635   0.0000000000
C          C       0.90338   0.33260   0.44758   0.0000000000
C          C       0.47501   0.19064   0.46381   0.0000000000
C          C       0.45057   0.16672   0.44498   0.0000000000
C          C       0.45076   0.21383   0.48355   0.0000000000
C          C       0.40404   0.21349   0.47173   0.0000000000
C          C       0.38009   0.19055   0.44256   0.0000000000
C          C       0.40249   0.16741   0.42913   0.0000000000
C          C       0.97614   0.69037   0.46457   0.0000000000
C          C       0.95176   0.66643   0.44621   0.0000000000
C          C       0.95181   0.71355   0.48353   0.0000000000
C          C       0.90507   0.71319   0.47146   0.0000000000
C          C       0.88120   0.69022   0.44226   0.0000000000
C          C       0.90365   0.66710   0.42930   0.0000000000
O          O       0.33687   0.80569   0.44788   0.0000000000
O          O       0.83622   0.30554   0.44836   0.0000000000
O          O       0.33556   0.19447   0.43484   0.0000000000
O          O       0.83668   0.69411   0.43440   0.0000000000
B          B       0.33313   0.77832   0.47227   0.0000000000
B          B       0.83230   0.27816   0.47013   0.0000000000
B          B       0.33196   0.22188   0.46323   0.0000000000
B          B       0.83289   0.72150   0.46283   0.0000000000
O          O       0.37747   0.76686   0.49418   0.0000000000
O          O       0.87653   0.26665   0.49013   0.0000000000
O          O       0.37633   0.23342   0.48629   0.0000000000
O          O       0.87723   0.73309   0.48580   0.0000000000
C          C       0.52486   0.85704   0.48877   0.0000000000
C          C       0.47600   0.85716   0.46114   0.0000000000
C          C       0.45290   0.88131   0.43854   0.0000000000
C          C       0.47711   0.90426   0.45210   0.0000000000
C          C       0.52430   0.90414   0.48729   0.0000000000
C          C       0.54826   0.88109   0.50639   0.0000000000
C          C       0.02436   0.35678   0.49313   0.0000000000
C          C       0.02400   0.40387   0.49461   0.0000000000
C          C       0.04789   0.38082   0.51291   0.0000000000
C          C       0.52343   0.14330   0.47449   0.0000000000
C          C       0.47456   0.14309   0.44652   0.0000000000
C          C       0.45151   0.11888   0.42512   0.0000000000
C          C       0.47580   0.09597   0.44042   0.0000000000
C          C       0.52300   0.09622   0.47600   0.0000000000
C          C       0.54689   0.11931   0.49356   0.0000000000
C          C       0.02476   0.64303   0.47816   0.0000000000
C          C       0.02446   0.59593   0.48220   0.0000000000
C          C       0.04829   0.61904   0.49879   0.0000000000
C          C       0.97548   0.35693   0.46474   0.0000000000
C          C       0.95246   0.38110   0.44306   0.0000000000
C          C       0.97678   0.40404   0.45831   0.0000000000
C          C       0.97587   0.64282   0.44937   0.0000000000
C          C       0.95287   0.61860   0.42889   0.0000000000
C          C       0.97723   0.59570   0.44594   0.0000000000
O          O       0.54090   0.92821   0.49637   0.0000000000
O          O       0.04078   0.42789   0.50532   0.0000000000
O          O       0.53978   0.07221   0.48760   0.0000000000
O          O       0.04125   0.57191   0.49540   0.0000000000
B          B       0.50094   0.94436   0.46404   0.0000000000
B          B       0.00090   0.44409   0.47267   0.0000000000
B          B       0.49995   0.05594   0.45684   0.0000000000
B          B       0.00138   0.55566   0.46489   0.0000000000
O          O       0.46080   0.92841   0.43644   0.0000000000
O          O       0.96060   0.42822   0.44346   0.0000000000
O          O       0.45965   0.07176   0.42712   0.0000000000
O          O       0.96108   0.57151   0.43370   0.0000000000
H          H       0.61708   0.84795   0.52601   0.0000000000
H          H       0.53232   0.76856   0.43479   0.0000000000
H          H       0.46689   0.76889   0.51903   0.0000000000
H          H       0.38387   0.84861   0.42993   0.0000000000
H          H       0.41841   0.88327   0.41236   0.0000000000
H          H       0.58276   0.88290   0.53180   0.0000000000
H          H       0.11660   0.34771   0.53198   0.0000000000
H          H       0.03159   0.26831   0.43219   0.0000000000
H          H       0.08242   0.38262   0.53942   0.0000000000
H          H       0.61547   0.15242   0.50780   0.0000000000
H          H       0.53138   0.23169   0.42844   0.0000000000
H          H       0.46575   0.23149   0.51001   0.0000000000
H          H       0.38228   0.15157   0.41080   0.0000000000
H          H       0.41703   0.11685   0.39913   0.0000000000
H          H       0.58142   0.11756   0.51983   0.0000000000
H          H       0.11682   0.65221   0.51309   0.0000000000
H          H       0.03237   0.73142   0.42737   0.0000000000
H          H       0.08284   0.61730   0.52551   0.0000000000
H          H       0.96596   0.26862   0.51403   0.0000000000
H          H       0.88339   0.34842   0.43395   0.0000000000
H          H       0.91795   0.38308   0.41629   0.0000000000
H          H       0.96676   0.73122   0.50986   0.0000000000
H          H       0.88344   0.65125   0.41068   0.0000000000
H          H       0.91838   0.61656   0.40250   0.0000000000
C          C       0.79025   0.73556   0.46779   0.0000000000
C          C       0.28939   0.23599   0.46805   0.0000000000
C          C       0.78957   0.26407   0.47148   0.0000000000
C          C       0.29049   0.76415   0.47407   0.0000000000
C          C       0.74804   0.72261   0.43848   0.0000000000
C          C       0.24746   0.22264   0.43671   0.0000000000
C          C       0.74781   0.27738   0.44401   0.0000000000
C          C       0.24851   0.77735   0.44324   0.0000000000
C          C       0.75065   0.77604   0.50375   0.0000000000
C          C       0.25010   0.27630   0.50677   0.0000000000
C          C       0.74971   0.22380   0.49880   0.0000000000
C          C       0.25105   0.72381   0.50535   0.0000000000
H          H       0.24595   0.20311   0.41129   0.0000000000
H          H       0.74657   0.29689   0.42401   0.0000000000
H          H       0.24704   0.79684   0.42059   0.0000000000
C          C       0.79104   0.76255   0.50117   0.0000000000
C          C       0.29043   0.26292   0.50381   0.0000000000
C          C       0.79023   0.23718   0.49959   0.0000000000
C          C       0.29147   0.73728   0.50602   0.0000000000
C          C       0.70803   0.73595   0.43932   0.0000000000
C          C       0.20712   0.23604   0.43968   0.0000000000
C          C       0.70729   0.26400   0.44328   0.0000000000
C          C       0.20808   0.76388   0.44265   0.0000000000
H          H       0.82096   0.77258   0.52221   0.0000000000
H          H       0.32045   0.27299   0.52678   0.0000000000
H          H       0.82009   0.22712   0.51960   0.0000000000
H          H       0.32153   0.72730   0.52903   0.0000000000
C          C       0.70849   0.76287   0.47339   0.0000000000
C          C       0.20815   0.26297   0.47528   0.0000000000
C          C       0.70795   0.23711   0.47136   0.0000000000
C          C       0.20905   0.73700   0.47422   0.0000000000
H          H       0.17708   0.22598   0.41664   0.0000000000
H          H       0.67739   0.27404   0.42304   0.0000000000
H          H       0.17799   0.77382   0.41976   0.0000000000
H          H       0.75225   0.79554   0.52769   0.0000000000
H          H       0.25163   0.29584   0.53203   0.0000000000
H          H       0.75097   0.20429   0.51853   0.0000000000
H          H       0.25256   0.70432   0.52806   0.0000000000
C          C       0.50039   0.02748   0.45652   0.0000000000
C          C       0.00158   0.52720   0.46569   0.0000000000
C          C       0.50094   0.97282   0.45995   0.0000000000
C          C       0.00128   0.47254   0.46938   0.0000000000
C          C       0.54156   0.01364   0.48289   0.0000000000
C          C       0.04258   0.51315   0.49362   0.0000000000
C          C       0.54181   0.98694   0.48442   0.0000000000
C          C       0.04243   0.48645   0.49528   0.0000000000
C          C       0.45950   0.98652   0.43270   0.0000000000
C          C       0.96001   0.48644   0.44097   0.0000000000
C          C       0.45921   0.01352   0.43097   0.0000000000
C          C       0.96016   0.51343   0.43906   0.0000000000
N          N       0.58388   0.02318   0.50942   0.0000000000
N          N       0.08507   0.52251   0.52140   0.0000000000
N          N       0.58429   0.97765   0.51196   0.0000000000
N          N       0.08482   0.47697   0.52399   0.0000000000
S          S       0.62471   0.00054   0.53810   0.0000000000
S          S       0.12562   0.49968   0.55140   0.0000000000
N          N       0.74014   0.69729   0.40632   0.0000000000
S          S       0.68486   0.68898   0.37336   0.0000000000
N          N       0.67182   0.72005   0.40567   0.0000000000
H          H       0.42881   0.02287   0.41376   0.0000000000
H          H       0.92986   0.52297   0.42053   0.0000000000
H          H       0.42930   0.97694   0.41671   0.0000000000
H          H       0.92959   0.47706   0.42393   0.0000000000
