data_crystal
 
_cell_length_a    60.76610
_cell_length_b    30.16930
_cell_length_c    3.50240
_cell_angle_alpha 90.00000
_cell_angle_beta  90.00000
_cell_angle_gamma 90.00000
 
_symmetry_space_group_name_Hall 'P 1'
_symmetry_space_group_name_H-M  'P 1'
 
loop_
_symmetry_equiv_pos_as_xyz
 'x,y,z' 
 
loop_
_atom_site_label
_atom_site_type_symbol
_atom_site_fract_x
_atom_site_fract_y
_atom_site_fract_z
_atom_site_charge
C          C       0.34209   0.52387   0.50000   0.0000000000
C          C       0.34209   0.47613   0.50000   0.0000000000
C          C       0.36284   0.45369   0.50000   0.0000000000
C          C       0.36284   0.54631   0.50000   0.0000000000
C          C       0.38263   0.47710   0.50000   0.0000000000
C          C       0.38263   0.52290   0.50000   0.0000000000
C          C       0.84209   0.02387   0.50000   0.0000000000
C          C       0.86284   0.04631   0.50000   0.0000000000
C          C       0.88263   0.02290   0.50000   0.0000000000
C          C       0.65791   0.47613   0.50000   0.0000000000
C          C       0.65791   0.52387   0.50000   0.0000000000
C          C       0.63716   0.54631   0.50000   0.0000000000
C          C       0.63716   0.45369   0.50000   0.0000000000
C          C       0.61737   0.52290   0.50000   0.0000000000
C          C       0.61737   0.47710   0.50000   0.0000000000
C          C       0.15791   0.97614   0.50000   0.0000000000
C          C       0.13716   0.95369   0.50000   0.0000000000
C          C       0.11737   0.97710   0.50000   0.0000000000
C          C       0.15791   0.02387   0.50000   0.0000000000
C          C       0.13716   0.04631   0.50000   0.0000000000
C          C       0.11737   0.02290   0.50000   0.0000000000
C          C       0.84209   0.97614   0.50000   0.0000000000
C          C       0.86284   0.95369   0.50000   0.0000000000
C          C       0.88263   0.97710   0.50000   0.0000000000
O          O       0.40337   0.53889   0.50000   0.0000000000
O          O       0.90337   0.03889   0.50000   0.0000000000
O          O       0.59663   0.46111   0.50000   0.0000000000
O          O       0.09663   0.96111   0.50000   0.0000000000
O          O       0.59663   0.53889   0.50000   0.0000000000
O          O       0.09663   0.03889   0.50000   0.0000000000
O          O       0.40337   0.46111   0.50000   0.0000000000
O          O       0.90337   0.96111   0.50000   0.0000000000
B          B       0.41716   0.50000   0.50000   0.0000000000
B          B       0.91716   0.00000   0.50000   0.0000000000
B          B       0.58284   0.50000   0.50000   0.0000000000
B          B       0.08284   0.00000   0.50000   0.0000000000
C          C       0.32170   0.54758   0.50000   0.0000000000
C          C       0.30117   0.52371   0.50000   0.0000000000
C          C       0.32098   0.59500   0.50000   0.0000000000
C          C       0.30101   0.61781   0.50000   0.0000000000
C          C       0.28132   0.59491   0.50000   0.0000000000
C          C       0.28115   0.54868   0.50000   0.0000000000
C          C       0.82170   0.04758   0.50000   0.0000000000
C          C       0.80117   0.02371   0.50000   0.0000000000
C          C       0.82098   0.09500   0.50000   0.0000000000
C          C       0.80101   0.11781   0.50000   0.0000000000
C          C       0.78132   0.09491   0.50000   0.0000000000
C          C       0.78115   0.04868   0.50000   0.0000000000
C          C       0.67830   0.45242   0.50000   0.0000000000
C          C       0.69883   0.47629   0.50000   0.0000000000
C          C       0.67903   0.40500   0.50000   0.0000000000
C          C       0.69899   0.38219   0.50000   0.0000000000
C          C       0.71868   0.40509   0.50000   0.0000000000
C          C       0.71885   0.45132   0.50000   0.0000000000
C          C       0.17830   0.95242   0.50000   0.0000000000
C          C       0.19883   0.97629   0.50000   0.0000000000
C          C       0.17903   0.90500   0.50000   0.0000000000
C          C       0.19899   0.88219   0.50000   0.0000000000
C          C       0.21868   0.90509   0.50000   0.0000000000
C          C       0.21885   0.95132   0.50000   0.0000000000
C          C       0.67830   0.54758   0.50000   0.0000000000
C          C       0.69883   0.52371   0.50000   0.0000000000
C          C       0.67903   0.59500   0.50000   0.0000000000
C          C       0.69899   0.61781   0.50000   0.0000000000
C          C       0.71868   0.59491   0.50000   0.0000000000
C          C       0.71885   0.54868   0.50000   0.0000000000
C          C       0.17830   0.04758   0.50000   0.0000000000
C          C       0.19883   0.02371   0.50000   0.0000000000
C          C       0.17903   0.09500   0.50000   0.0000000000
C          C       0.19899   0.11781   0.50000   0.0000000000
C          C       0.21868   0.09491   0.50000   0.0000000000
C          C       0.21885   0.04868   0.50000   0.0000000000
C          C       0.32170   0.45242   0.50000   0.0000000000
C          C       0.30117   0.47629   0.50000   0.0000000000
C          C       0.32098   0.40500   0.50000   0.0000000000
C          C       0.30101   0.38219   0.50000   0.0000000000
C          C       0.28132   0.40509   0.50000   0.0000000000
C          C       0.28115   0.45132   0.50000   0.0000000000
C          C       0.82170   0.95242   0.50000   0.0000000000
C          C       0.80117   0.97629   0.50000   0.0000000000
C          C       0.82098   0.90500   0.50000   0.0000000000
C          C       0.80101   0.88219   0.50000   0.0000000000
C          C       0.78132   0.90509   0.50000   0.0000000000
C          C       0.78115   0.95132   0.50000   0.0000000000
O          O       0.26407   0.62309   0.50000   0.0000000000
O          O       0.76407   0.12309   0.50000   0.0000000000
O          O       0.73593   0.37691   0.50000   0.0000000000
O          O       0.23593   0.87691   0.50000   0.0000000000
O          O       0.73593   0.62309   0.50000   0.0000000000
O          O       0.23593   0.12309   0.50000   0.0000000000
O          O       0.26407   0.37691   0.50000   0.0000000000
O          O       0.76407   0.87691   0.50000   0.0000000000
B          B       0.27391   0.66658   0.50000   0.0000000000
B          B       0.77391   0.16658   0.50000   0.0000000000
B          B       0.72609   0.33342   0.50000   0.0000000000
B          B       0.22609   0.83342   0.50000   0.0000000000
B          B       0.72609   0.66658   0.50000   0.0000000000
B          B       0.22609   0.16658   0.50000   0.0000000000
B          B       0.27391   0.33342   0.50000   0.0000000000
B          B       0.77391   0.83342   0.50000   0.0000000000
O          O       0.29752   0.66199   0.50000   0.0000000000
O          O       0.79752   0.16199   0.50000   0.0000000000
O          O       0.70248   0.33801   0.50000   0.0000000000
O          O       0.20248   0.83801   0.50000   0.0000000000
O          O       0.70248   0.66199   0.50000   0.0000000000
O          O       0.20248   0.16199   0.50000   0.0000000000
O          O       0.29752   0.33801   0.50000   0.0000000000
O          O       0.79752   0.83801   0.50000   0.0000000000
H          H       0.36448   0.42022   0.50000   0.0000000000
H          H       0.36448   0.57978   0.50000   0.0000000000
H          H       0.33455   0.61459   0.50000   0.0000000000
H          H       0.33455   0.38541   0.50000   0.0000000000
H          H       0.26594   0.53481   0.50000   0.0000000000
H          H       0.26594   0.46519   0.50000   0.0000000000
H          H       0.86448   0.92022   0.50000   0.0000000000
H          H       0.83455   0.88541   0.50000   0.0000000000
H          H       0.76594   0.96519   0.50000   0.0000000000
H          H       0.63552   0.57978   0.50000   0.0000000000
H          H       0.63552   0.42022   0.50000   0.0000000000
H          H       0.66545   0.38541   0.50000   0.0000000000
H          H       0.66545   0.61459   0.50000   0.0000000000
H          H       0.73406   0.46519   0.50000   0.0000000000
H          H       0.73406   0.53481   0.50000   0.0000000000
H          H       0.13552   0.07978   0.50000   0.0000000000
H          H       0.16545   0.11459   0.50000   0.0000000000
H          H       0.23406   0.03481   0.50000   0.0000000000
H          H       0.13552   0.92022   0.50000   0.0000000000
H          H       0.16545   0.88541   0.50000   0.0000000000
H          H       0.23406   0.96519   0.50000   0.0000000000
H          H       0.86448   0.07978   0.50000   0.0000000000
H          H       0.83455   0.11459   0.50000   0.0000000000
H          H       0.76594   0.03481   0.50000   0.0000000000
C          C       0.55836   0.50000   0.50000   0.0000000000
C          C       0.05836   0.00000   0.50000   0.0000000000
C          C       0.44164   0.50000   0.50000   0.0000000000
C          C       0.94164   0.00000   0.50000   0.0000000000
C          C       0.54666   0.54036   0.50000   0.0000000000
C          C       0.04666   0.04036   0.50000   0.0000000000
C          C       0.45334   0.45964   0.50000   0.0000000000
C          C       0.95334   0.95964   0.50000   0.0000000000
C          C       0.45334   0.54036   0.50000   0.0000000000
C          C       0.95334   0.04036   0.50000   0.0000000000
C          C       0.54666   0.45964   0.50000   0.0000000000
C          C       0.04666   0.95964   0.50000   0.0000000000
C          C       0.52342   0.45923   0.50000   0.0000000000
C          C       0.02342   0.95923   0.50000   0.0000000000
C          C       0.47658   0.54077   0.50000   0.0000000000
C          C       0.97658   0.04077   0.50000   0.0000000000
C          C       0.47658   0.45923   0.50000   0.0000000000
C          C       0.97658   0.95923   0.50000   0.0000000000
C          C       0.52342   0.54077   0.50000   0.0000000000
C          C       0.02342   0.04077   0.50000   0.0000000000
H          H       0.55515   0.56968   0.50000   0.0000000000
H          H       0.05514   0.06968   0.50000   0.0000000000
H          H       0.44486   0.43032   0.50000   0.0000000000
H          H       0.94486   0.93032   0.50000   0.0000000000
H          H       0.44486   0.56968   0.50000   0.0000000000
H          H       0.94486   0.06968   0.50000   0.0000000000
H          H       0.55515   0.43032   0.50000   0.0000000000
H          H       0.05514   0.93032   0.50000   0.0000000000
C          C       0.51171   0.50000   0.50000   0.0000000000
C          C       0.01171   0.00000   0.50000   0.0000000000
C          C       0.48829   0.50000   0.50000   0.0000000000
C          C       0.98829   0.00000   0.50000   0.0000000000
C          C       0.48844   0.58097   0.50000   0.0000000000
C          C       0.98844   0.08097   0.50000   0.0000000000
C          C       0.51156   0.41903   0.50000   0.0000000000
C          C       0.01156   0.91903   0.50000   0.0000000000
C          C       0.51156   0.58097   0.50000   0.0000000000
C          C       0.01156   0.08097   0.50000   0.0000000000
C          C       0.48844   0.41903   0.50000   0.0000000000
C          C       0.98844   0.91903   0.50000   0.0000000000
C          C       0.23833   0.20927   0.50000   0.0000000000
C          C       0.73833   0.70927   0.50000   0.0000000000
C          C       0.76167   0.79073   0.50000   0.0000000000
C          C       0.26167   0.29073   0.50000   0.0000000000
C          C       0.76167   0.20927   0.50000   0.0000000000
C          C       0.26167   0.70927   0.50000   0.0000000000
C          C       0.23833   0.79073   0.50000   0.0000000000
C          C       0.73833   0.29073   0.50000   0.0000000000
C          C       0.22687   0.24997   0.50000   0.0000000000
C          C       0.72687   0.74997   0.50000   0.0000000000
C          C       0.77313   0.75003   0.50000   0.0000000000
C          C       0.27313   0.25003   0.50000   0.0000000000
C          C       0.77313   0.24997   0.50000   0.0000000000
C          C       0.27313   0.74997   0.50000   0.0000000000
C          C       0.22687   0.75003   0.50000   0.0000000000
C          C       0.72687   0.25003   0.50000   0.0000000000
C          C       0.23845   0.29035   0.50000   0.0000000000
C          C       0.73845   0.79035   0.50000   0.0000000000
C          C       0.76155   0.70965   0.50000   0.0000000000
C          C       0.26155   0.20965   0.50000   0.0000000000
C          C       0.76155   0.29035   0.50000   0.0000000000
C          C       0.26155   0.79035   0.50000   0.0000000000
C          C       0.23845   0.70965   0.50000   0.0000000000
C          C       0.73845   0.20965   0.50000   0.0000000000
H          H       0.21004   0.25064   0.50000   0.0000000000
H          H       0.71004   0.75064   0.50000   0.0000000000
H          H       0.78996   0.74936   0.50000   0.0000000000
H          H       0.28996   0.24936   0.50000   0.0000000000
H          H       0.78996   0.25064   0.50000   0.0000000000
H          H       0.28996   0.75064   0.50000   0.0000000000
H          H       0.21004   0.74936   0.50000   0.0000000000
H          H       0.71004   0.24936   0.50000   0.0000000000
H          H       0.27026   0.81938   0.50000   0.0000000000
H          H       0.77026   0.31938   0.50000   0.0000000000
H          H       0.72974   0.18062   0.50000   0.0000000000
H          H       0.22974   0.68062   0.50000   0.0000000000
H          H       0.72974   0.81938   0.50000   0.0000000000
H          H       0.22974   0.31938   0.50000   0.0000000000
H          H       0.27026   0.18062   0.50000   0.0000000000
H          H       0.77026   0.68062   0.50000   0.0000000000
H          H       0.48033   0.61071   0.50000   0.0000000000
H          H       0.98033   0.11071   0.50000   0.0000000000
H          H       0.51967   0.38930   0.50000   0.0000000000
H          H       0.01967   0.88930   0.50000   0.0000000000
H          H       0.51967   0.61071   0.50000   0.0000000000
H          H       0.01967   0.11071   0.50000   0.0000000000
H          H       0.48033   0.38930   0.50000   0.0000000000
H          H       0.98033   0.88930   0.50000   0.0000000000
