data_MC-COF-TP-E1E3E7
_audit_creation_date              0000-00-00
_audit_creation_method            'LanYouShi'
_symmetry_space_group_name_H-M    'P1'
_cell_length_a                    33.8330002
_cell_length_b                    3.5560999
_cell_length_c                    31.4113007
_cell_angle_alpha                 90.0000000
_cell_angle_beta                  65.5175018
_cell_angle_gamma                 90.0000000
loop_
_atom_site_label
_atom_site_type_symbol
_atom_site_fract_x
_atom_site_fract_y
_atom_site_fract_z
_atom_site_U_iso_or_equiv
_atom_site_adp_type
_atom_site_occupancy
        C1          C  0.3098149  0.4573360  0.3279676    0.00000       Uiso       1.00
        C2          C  0.3115871  0.4385005  0.3729294    0.00000       Uiso       1.00
        C3          C  0.2717268  0.3921480  0.4136141    0.00000       Uiso       1.00
        C4          C  0.2318213  0.3837655  0.4103586    0.00000       Uiso       1.00
        C5          C  0.2300493  0.4113985  0.3672716    0.00000       Uiso       1.00
        C6          C  0.2680942  0.4467938  0.3265333    0.00000       Uiso       1.00
        C1          C  0.6901849  0.4573360  0.6720316    0.00000       Uiso       1.00
        C2          C  0.6884127  0.4385005  0.6270698    0.00000       Uiso       1.00
        C3          C  0.7282731  0.3921480  0.5863851    0.00000       Uiso       1.00
        C4          C  0.7681785  0.3837655  0.5896406    0.00000       Uiso       1.00
        C5          C  0.7699505  0.4113985  0.6327276    0.00000       Uiso       1.00
        C6          C  0.7319056  0.4467938  0.6734660    0.00000       Uiso       1.00
        O1          O  0.1887127  0.3966709  0.3716193    0.00000       Uiso       1.00
        O1          O  0.8112871  0.3966709  0.6283799    0.00000       Uiso       1.00
        B1          B  0.1629944  0.3593614  0.4212536    0.00000       Uiso       1.00
        B1          B  0.8370054  0.3593614  0.5787456    0.00000       Uiso       1.00
        O2          O  0.1915982  0.3504116  0.4448134    0.00000       Uiso       1.00
        O2          O  0.8084015  0.3504116  0.5551858    0.00000       Uiso       1.00
        C1          C  0.3490981  0.4851280  0.2863065    0.00000       Uiso       1.00
        C2          C  0.6509017  0.4851280  0.7136927    0.00000       Uiso       1.00
        C3          C  0.3903470  0.5021572  0.2894134    0.00000       Uiso       1.00
        C4          C  0.6096528  0.5021572  0.7105858    0.00000       Uiso       1.00
        C5          C  0.3488391  0.4937498  0.2408789    0.00000       Uiso       1.00
        C6          C  0.6511607  0.4937498  0.7591203    0.00000       Uiso       1.00
        C7          C  0.3873230  0.5189647  0.2004652    0.00000       Uiso       1.00
        C8          C  0.6126768  0.5189647  0.7995340    0.00000       Uiso       1.00
        C9          C  0.4269179  0.5352894  0.2034544    0.00000       Uiso       1.00
       C10          C  0.5730819  0.5352894  0.7965448    0.00000       Uiso       1.00
       C11          C  0.4288857  0.5278603  0.2469231    0.00000       Uiso       1.00
       C12          C  0.5711142  0.5278603  0.7530761    0.00000       Uiso       1.00
        H1          H  0.2699754  0.3617130  0.4465164    0.00000       Uiso       1.00
        H2          H  0.7300244  0.3617130  0.5534828    0.00000       Uiso       1.00
        H3          H  0.2635920  0.4635434  0.2965603    0.00000       Uiso       1.00
        H4          H  0.7364078  0.4635434  0.7034389    0.00000       Uiso       1.00
        H5          H  0.3214313  0.4809647  0.2352349    0.00000       Uiso       1.00
        H6          H  0.6785685  0.4809647  0.7647644    0.00000       Uiso       1.00
        H7          H  0.4593092  0.5417058  0.2456411    0.00000       Uiso       1.00
        H8          H  0.5406906  0.5417058  0.7543581    0.00000       Uiso       1.00
        H9          H  0.4617442  0.5316983  0.3113897    0.00000       Uiso       1.00
       H10          H  0.5382556  0.5316983  0.6886095    0.00000       Uiso       1.00
       H11          H  0.3293121  0.4578677  0.4515228    0.00000       Uiso       1.00
       H12          H  0.6706877  0.4578677  0.5484764    0.00000       Uiso       1.00
       C13          C  0.1147701  0.3399886  0.4444608    0.00000       Uiso       1.00
       C14          C  0.8852297  0.3399886  0.5555384    0.00000       Uiso       1.00
       C15          C  0.0903108  0.3309180  0.4173079    0.00000       Uiso       1.00
       C16          C  0.9096891  0.3309180  0.5826913    0.00000       Uiso       1.00
       C17          C  0.0444584  0.3268120  0.4388996    0.00000       Uiso       1.00
       C18          C  0.9555414  0.3268120  0.5610996    0.00000       Uiso       1.00
       C19          C  0.0933418  0.3351191  0.4937988    0.00000       Uiso       1.00
       C20          C  0.9066579  0.3351191  0.5062004    0.00000       Uiso       1.00
       C21          C  0.0475346  0.3281984  0.5165770    0.00000       Uiso       1.00
       C22          C  0.9524651  0.3281984  0.4834222    0.00000       Uiso       1.00
       C23          C  0.0232332  0.3267644  0.4887479    0.00000       Uiso       1.00
       C24          C  0.9767665  0.3267644  0.5112513    0.00000       Uiso       1.00
       C25          C  0.0259613  0.3260479  0.5661610    0.00000       Uiso       1.00
       C26          C  0.9740385  0.3260479  0.4338382    0.00000       Uiso       1.00
       H13          H  0.1075801  0.3268287  0.3775000    0.00000       Uiso       1.00
       H14          H  0.1130452  0.3367573  0.5157298    0.00000       Uiso       1.00
       H15          H  0.0456403  0.3252021  0.5881183    0.00000       Uiso       1.00
       H16          H  0.8924197  0.3268287  0.6224992    0.00000       Uiso       1.00
       H17          H  0.8869546  0.3367573  0.4842694    0.00000       Uiso       1.00
       H18          H  0.9543595  0.3252021  0.4118810    0.00000       Uiso       1.00
        O3          O  0.4599380  0.5564496  0.1605668    0.00000       Uiso       1.00
        O3          O  0.5400618  0.5564496  0.8394324    0.00000       Uiso       1.00
        B2          B  0.4389131  0.5528674  0.1289584    0.00000       Uiso       1.00
        B2          B  0.5610867  0.5528674  0.8710408    0.00000       Uiso       1.00
        O4          O  0.3925774  0.5294287  0.1554805    0.00000       Uiso       1.00
        O4          O  0.6074224  0.5294287  0.8445188    0.00000       Uiso       1.00
       C13          C  0.3524740  0.4657335  0.3760689    0.00000       Uiso       1.00
       C14          C  0.3920070  0.4941880  0.3341880    0.00000       Uiso       1.00
       C15          C  0.4322802  0.5136389  0.3388572    0.00000       Uiso       1.00
       C16          C  0.4334456  0.5115870  0.3827397    0.00000       Uiso       1.00
       C17          C  0.3954277  0.4919642  0.4229611    0.00000       Uiso       1.00
       C18          C  0.3554002  0.4696827  0.4202361    0.00000       Uiso       1.00
       C13          C  0.6475258  0.4657335  0.6239303    0.00000       Uiso       1.00
       C14          C  0.6079928  0.4941880  0.6658112    0.00000       Uiso       1.00
       C15          C  0.5677196  0.5136389  0.6611420    0.00000       Uiso       1.00
       C16          C  0.5665542  0.5115870  0.6172596    0.00000       Uiso       1.00
       C17          C  0.6045721  0.4919642  0.5770382    0.00000       Uiso       1.00
       C18          C  0.6445996  0.4696827  0.5797631    0.00000       Uiso       1.00
        O5          O  0.4036800  0.4968843  0.4614967    0.00000       Uiso       1.00
        O5          O  0.5963198  0.4968843  0.5385025    0.00000       Uiso       1.00
        B3          B  0.4503444  0.5177749  0.4435108    0.00000       Uiso       1.00
        B3          B  0.5496554  0.5177749  0.5564884    0.00000       Uiso       1.00
        O6          O  0.4683398  0.5266024  0.3931178    0.00000       Uiso       1.00
        O6          O  0.5316600  0.5266024  0.6068814    0.00000       Uiso       1.00
       H14          C  0.0198365  0.3249553  0.4116876    0.00000       Uiso       1.00
         H          H  0.0370559  0.3225774  0.3718740    0.00000       Uiso       1.00
       H14          C  0.9801634  0.3249553  0.5883116    0.00000       Uiso       1.00
         H          H  0.9629439  0.3225774  0.6281252    0.00000       Uiso       1.00
       C65          C  0.4757623  0.5249208  0.4724185    0.00000       Uiso       1.00
       C68          C  0.4543757  0.5260955  0.5216937    0.00000       Uiso       1.00
       C65          C  0.5242375  0.5249208  0.5275807    0.00000       Uiso       1.00
       C68          C  0.5456241  0.5260955  0.4783055    0.00000       Uiso       1.00
       H27          H  0.4211940  0.5253731  0.5381374    0.00000       Uiso       1.00
       H27          H  0.5788057  0.5253731  0.4618618    0.00000       Uiso       1.00
       C69          C  0.5215895  0.5276883  0.4509461    0.00000       Uiso       1.00
       C69          C  0.4784103  0.5276883  0.5490531    0.00000       Uiso       1.00
       H30          H  0.5379177  0.5287871  0.4152730    0.00000       Uiso       1.00
       H30          H  0.4620821  0.5287871  0.5847262    0.00000       Uiso       1.00
       C81          C  0.5386712  0.5667987  0.9227857    0.00000       Uiso       1.00
       C81          C  0.4613286  0.5667987  0.0772135    0.00000       Uiso       1.00
        S1          S  0.5676089  0.5724782  0.9576341    0.00000       Uiso       1.00
        S1          S  0.4323908  0.5724782  0.0423651    0.00000       Uiso       1.00
       C83          C  0.5177915  0.5738016  0.0051492    0.00000       Uiso       1.00
       C85          C  0.5064681  0.5711979  0.0527257    0.00000       Uiso       1.00
       C83          C  0.4822083  0.5738016  0.9948500    0.00000       Uiso       1.00
       C85          C  0.4935317  0.5711979  0.9472736    0.00000       Uiso       1.00
       H37          H  0.4716972  0.5697256  0.9326078    0.00000       Uiso       1.00
       H37          H  0.5283026  0.5697256  0.0673914    0.00000       Uiso       1.00
