data_crystal
 
_cell_length_a    33.71600
_cell_length_b    53.96920
_cell_length_c    3.40000
_cell_angle_alpha 90.00000
_cell_angle_beta  90.00000
_cell_angle_gamma 89.38250
 
_symmetry_space_group_name_Hall 'P 1'
_symmetry_space_group_name_H-M  'P 1'
 
loop_
_symmetry_equiv_pos_as_xyz
 'x,y,z' 
 
loop_
_atom_site_label
_atom_site_type_symbol
_atom_site_fract_x
_atom_site_fract_y
_atom_site_fract_z
_atom_site_charge
C          C       0.47871   0.52308   0.48778   0.0000000000
C          C       0.52136   0.52277   0.48682   0.0000000000
C          C       0.54161   0.54583   0.50995   0.0000000000
C          C       0.52027   0.56786   0.53217   0.0000000000
C          C       0.47991   0.56813   0.53605   0.0000000000
C          C       0.45852   0.54640   0.51636   0.0000000000
O          O       0.46384   0.59180   0.56537   0.0000000000
B          B       0.50014   0.60641   0.57885   0.0000000000
O          O       0.53640   0.59131   0.55839   0.0000000000
C          C       0.45753   0.50040   0.46291   0.0000000000
C          C       0.47880   0.47717   0.45433   0.0000000000
C          C       0.41523   0.50009   0.44365   0.0000000000
C          C       0.39549   0.47775   0.42371   0.0000000000
C          C       0.41561   0.45576   0.41857   0.0000000000
C          C       0.45665   0.45481   0.43149   0.0000000000
O          O       0.39088   0.43547   0.39364   0.0000000000
B          B       0.35216   0.44798   0.38435   0.0000000000
O          O       0.35472   0.47501   0.40287   0.0000000000
C          C       0.54246   0.49975   0.46876   0.0000000000
C          C       0.52110   0.47684   0.46293   0.0000000000
C          C       0.54318   0.45411   0.46377   0.0000000000
C          C       0.58425   0.45441   0.45914   0.0000000000
C          C       0.60446   0.47610   0.45389   0.0000000000
C          C       0.58479   0.49877   0.45832   0.0000000000
O          O       0.64525   0.47270   0.44671   0.0000000000
B          B       0.64772   0.44561   0.44856   0.0000000000
O          O       0.60892   0.43371   0.45656   0.0000000000
H          H       0.57332   0.54760   0.51614   0.0000000000
H          H       0.42682   0.54859   0.52922   0.0000000000
H          H       0.39668   0.51640   0.43828   0.0000000000
H          H       0.46968   0.43657   0.41863   0.0000000000
H          H       0.53009   0.43605   0.46984   0.0000000000
H          H       0.60345   0.51478   0.45142   0.0000000000
C          C       0.47909   0.80069   0.80052   0.0000000000
C          C       0.52173   0.80042   0.79326   0.0000000000
C          C       0.54192   0.77708   0.76625   0.0000000000
C          C       0.52054   0.75535   0.74813   0.0000000000
C          C       0.48017   0.75562   0.75203   0.0000000000
C          C       0.45883   0.77764   0.77583   0.0000000000
O          O       0.46404   0.73217   0.72580   0.0000000000
B          B       0.50030   0.71707   0.70534   0.0000000000
O          O       0.53660   0.73167   0.71882   0.0000000000
C          C       0.45798   0.82366   0.82946   0.0000000000
C          C       0.47927   0.84659   0.83394   0.0000000000
C          C       0.41572   0.82455   0.85685   0.0000000000
C          C       0.39603   0.84715   0.88058   0.0000000000
C          C       0.41616   0.86887   0.88185   0.0000000000
C          C       0.45718   0.86926   0.86103   0.0000000000
O          O       0.39150   0.88950   0.91154   0.0000000000
B          B       0.35280   0.87752   0.92828   0.0000000000
O          O       0.35531   0.85045   0.90927   0.0000000000
C          C       0.54288   0.82315   0.80725   0.0000000000
C          C       0.52154   0.84635   0.81719   0.0000000000
C          C       0.54362   0.86878   0.81210   0.0000000000
C          C       0.58469   0.86792   0.80883   0.0000000000
C          C       0.60490   0.84595   0.81019   0.0000000000
C          C       0.58522   0.82356   0.80955   0.0000000000
O          O       0.64570   0.84880   0.80952   0.0000000000
B          B       0.64817   0.87585   0.80719   0.0000000000
O          O       0.60938   0.88828   0.80666   0.0000000000
H          H       0.57361   0.77488   0.75395   0.0000000000
H          H       0.42712   0.77589   0.76907   0.0000000000
H          H       0.39718   0.80848   0.86579   0.0000000000
H          H       0.47023   0.88732   0.87138   0.0000000000
H          H       0.53053   0.88702   0.80855   0.0000000000
H          H       0.60388   0.80729   0.81286   0.0000000000
C          C       0.02516   0.29685   0.40804   0.0000000000
C          C       0.98254   0.29716   0.42258   0.0000000000
C          C       0.96239   0.27412   0.45697   0.0000000000
C          C       0.98381   0.25211   0.47514   0.0000000000
C          C       0.02416   0.25183   0.46434   0.0000000000
C          C       0.04546   0.27355   0.43319   0.0000000000
O          O       0.04033   0.22818   0.49180   0.0000000000
B          B       0.00411   0.21359   0.52098   0.0000000000
O          O       0.96780   0.22868   0.51119   0.0000000000
C          C       0.04622   0.31951   0.37163   0.0000000000
C          C       0.02493   0.34273   0.36687   0.0000000000
C          C       0.08842   0.31981   0.33691   0.0000000000
C          C       0.10808   0.34213   0.30601   0.0000000000
C          C       0.08794   0.36412   0.30447   0.0000000000
C          C       0.04697   0.36508   0.33219   0.0000000000
O          O       0.11255   0.38439   0.26711   0.0000000000
B          B       0.15121   0.37187   0.24584   0.0000000000
O          O       0.14874   0.34485   0.26985   0.0000000000
C          C       0.96137   0.32017   0.40833   0.0000000000
C          C       0.98269   0.34307   0.39083   0.0000000000
C          C       0.96062   0.36580   0.39587   0.0000000000
C          C       0.91957   0.36551   0.40626   0.0000000000
C          C       0.89936   0.34381   0.41206   0.0000000000
C          C       0.91903   0.32115   0.41315   0.0000000000
O          O       0.85856   0.34722   0.41917   0.0000000000
B          B       0.85610   0.37431   0.41733   0.0000000000
O          O       0.89489   0.38621   0.40917   0.0000000000
H          H       0.93073   0.27236   0.47502   0.0000000000
H          H       0.07718   0.27137   0.43486   0.0000000000
H          H       0.10695   0.30349   0.32754   0.0000000000
H          H       0.03390   0.38331   0.32099   0.0000000000
H          H       0.97372   0.38387   0.39410   0.0000000000
H          H       0.90037   0.30514   0.41577   0.0000000000
C          C       0.02569   0.01946   0.77504   0.0000000000
C          C       0.98305   0.01973   0.76871   0.0000000000
C          C       0.96285   0.04305   0.73820   0.0000000000
C          C       0.98424   0.06477   0.71591   0.0000000000
C          C       0.02460   0.06450   0.71894   0.0000000000
C          C       0.04594   0.04249   0.74599   0.0000000000
O          O       0.04073   0.08793   0.68837   0.0000000000
B          B       0.00446   0.10301   0.66617   0.0000000000
O          O       0.96817   0.08842   0.68295   0.0000000000
C          C       0.04681   0.99651   0.80739   0.0000000000
C          C       0.02552   0.97358   0.81625   0.0000000000
C          C       0.08907   0.99564   0.83398   0.0000000000
C          C       0.10877   0.97306   0.86110   0.0000000000
C          C       0.08863   0.95134   0.86651   0.0000000000
C          C       0.04762   0.95094   0.84668   0.0000000000
O          O       0.11330   0.93073   0.89913   0.0000000000
B          B       0.15200   0.94272   0.91295   0.0000000000
O          O       0.14949   0.96977   0.88942   0.0000000000
C          C       0.96190   0.99701   0.78703   0.0000000000
C          C       0.98324   0.97382   0.80042   0.0000000000
C          C       0.96116   0.95139   0.79964   0.0000000000
C          C       0.92009   0.95225   0.79715   0.0000000000
C          C       0.89988   0.97422   0.79524   0.0000000000
C          C       0.91956   0.99661   0.79036   0.0000000000
O          O       0.85908   0.97137   0.79598   0.0000000000
B          B       0.85661   0.94431   0.79830   0.0000000000
O          O       0.89540   0.93188   0.79899   0.0000000000
H          H       0.93116   0.04524   0.72625   0.0000000000
H          H       0.07766   0.04424   0.73821   0.0000000000
H          H       0.10762   0.01171   0.83978   0.0000000000
H          H       0.03456   0.93288   0.86039   0.0000000000
H          H       0.97425   0.93315   0.79888   0.0000000000
H          H       0.90091   0.01288   0.79133   0.0000000000
C          C       0.50009   0.69011   0.67478   0.0000000000
C          C       0.46046   0.67623   0.66242   0.0000000000
C          C       0.53922   0.64733   0.62230   0.0000000000
N          N       0.58026   0.63569   0.60527   0.0000000000
S          S       0.61322   0.66096   0.63120   0.0000000000
N          N       0.58033   0.68669   0.66352   0.0000000000
H          H       0.43121   0.68699   0.67716   0.0000000000
C          C       0.53926   0.67561   0.65452   0.0000000000
C          C       0.46042   0.64778   0.62982   0.0000000000
C          C       0.50002   0.63336   0.60962   0.0000000000
H          H       0.43116   0.63742   0.62070   0.0000000000
C          C       0.81808   0.38826   0.42301   0.0000000000
C          C       0.68573   0.43166   0.44301   0.0000000000
S          S       0.81303   0.42181   0.42094   0.0000000000
S          S       0.69079   0.39811   0.44514   0.0000000000
C          C       0.75995   0.42296   0.43057   0.0000000000
C          C       0.74387   0.39696   0.43576   0.0000000000
C          C       0.77611   0.37634   0.43161   0.0000000000
C          C       0.72771   0.44358   0.43448   0.0000000000
H          H       0.77013   0.35559   0.43439   0.0000000000
H          H       0.73369   0.46433   0.43155   0.0000000000
C          C       0.18918   0.38527   0.27144   0.0000000000
C          C       0.31420   0.43457   0.35888   0.0000000000
S          S       0.23811   0.37086   0.28394   0.0000000000
S          S       0.26527   0.44898   0.34645   0.0000000000
C          C       0.26575   0.39894   0.31451   0.0000000000
C          C       0.23763   0.42091   0.31613   0.0000000000
C          C       0.19327   0.41403   0.29178   0.0000000000
C          C       0.31011   0.40582   0.33861   0.0000000000
H          H       0.16747   0.42786   0.28907   0.0000000000
H          H       0.33591   0.39199   0.34117   0.0000000000
C          C       0.81858   0.93088   0.79994   0.0000000000
C          C       0.68620   0.88928   0.80542   0.0000000000
S          S       0.81351   0.89740   0.80299   0.0000000000
S          S       0.69127   0.92276   0.80231   0.0000000000
C          C       0.76043   0.89697   0.80357   0.0000000000
C          C       0.74435   0.92319   0.80148   0.0000000000
C          C       0.77661   0.94337   0.79941   0.0000000000
C          C       0.72817   0.87679   0.80587   0.0000000000
H          H       0.77063   0.96420   0.79779   0.0000000000
H          H       0.73415   0.85596   0.80765   0.0000000000
C          C       0.19010   0.94244   1.07253   0.0000000000
C          C       0.31490   0.89144   0.96105   0.0000000000
S          S       0.23900   0.95618   1.05062   0.0000000000
S          S       0.26600   0.87770   0.98290   0.0000000000
C          C       0.26656   0.92773   1.01474   0.0000000000
C          C       0.23844   0.90615   1.01853   0.0000000000
C          C       0.19413   0.91363   1.05141   0.0000000000
C          C       0.31087   0.92025   0.98210   0.0000000000
H          H       0.16834   0.90015   1.05909   0.0000000000
H          H       0.33666   0.93373   0.97457   0.0000000000
C          C       0.00437   0.13219   0.62786   0.0000000000
C          C       0.04025   0.14512   0.60096   0.0000000000
C          C       0.96833   0.17148   0.58620   0.0000000000
H          H       0.06837   0.13517   0.60627   0.0000000000
C          C       0.96841   0.14562   0.62015   0.0000000000
C          C       0.04017   0.17098   0.56700   0.0000000000
H          H       0.94036   0.13605   0.64048   0.0000000000
C          C       0.00421   0.18441   0.55929   0.0000000000
H          H       0.06822   0.18055   0.54667   0.0000000000
H          H       0.94021   0.18144   0.58088   0.0000000000
