data_MC-COF-TP-E22E31
_audit_creation_date              0000-00-00
_audit_creation_method            'LanYouShi'
_symmetry_space_group_name_H-M    'P1'
_cell_length_a                    33.7159996
_cell_length_b                    53.9692001
_cell_length_c                    3.4000001
_cell_angle_alpha                 90.0000000
_cell_angle_beta                  90.0000000
_cell_angle_gamma                 89.3824997
loop_
_atom_site_label
_atom_site_type_symbol
_atom_site_fract_x
_atom_site_fract_y
_atom_site_fract_z
_atom_site_U_iso_or_equiv
_atom_site_adp_type
_atom_site_occupancy
        C1          C  0.4787128  0.5230771  0.4877767    0.00000       Uiso       1.00
        C2          C  0.5213569  0.5227696  0.4868245    0.00000       Uiso       1.00
        C3          C  0.5416126  0.5458271  0.5099458    0.00000       Uiso       1.00
        C4          C  0.5202731  0.5678555  0.5321729    0.00000       Uiso       1.00
        C5          C  0.4799055  0.5681313  0.5360466    0.00000       Uiso       1.00
        C6          C  0.4585165  0.5464010  0.5163569    0.00000       Uiso       1.00
        O1          O  0.4638408  0.5918047  0.5653713    0.00000       Uiso       1.00
        B1          B  0.5001413  0.6064082  0.5788540    0.00000       Uiso       1.00
        O2          O  0.5364019  0.5913098  0.5583874    0.00000       Uiso       1.00
        C7          C  0.4575348  0.5003981  0.4629076    0.00000       Uiso       1.00
        C8          C  0.4788036  0.4771716  0.4543283    0.00000       Uiso       1.00
        C9          C  0.4152343  0.5000868  0.4436479    0.00000       Uiso       1.00
       C10          C  0.3954877  0.4777518  0.4237139    0.00000       Uiso       1.00
       C11          C  0.4156066  0.4557552  0.4185676    0.00000       Uiso       1.00
       C12          C  0.4566538  0.4548116  0.4314906    0.00000       Uiso       1.00
        O3          O  0.3908824  0.4354660  0.3936358    0.00000       Uiso       1.00
        B2          B  0.3521640  0.4479764  0.3843510    0.00000       Uiso       1.00
        O4          O  0.3547195  0.4750054  0.4028652    0.00000       Uiso       1.00
       C13          C  0.5424647  0.4997518  0.4687620    0.00000       Uiso       1.00
       C14          C  0.5211011  0.4768424  0.4629342    0.00000       Uiso       1.00
       C15          C  0.5431797  0.4541129  0.4637717    0.00000       Uiso       1.00
       C16          C  0.5842481  0.4544113  0.4591395    0.00000       Uiso       1.00
       C17          C  0.6044598  0.4761030  0.4538917    0.00000       Uiso       1.00
       C18          C  0.5847934  0.4987652  0.4583180    0.00000       Uiso       1.00
        O5          O  0.6452546  0.4726988  0.4467063    0.00000       Uiso       1.00
        B3          B  0.6477177  0.4456076  0.4485562    0.00000       Uiso       1.00
        O6          O  0.6089244  0.4337076  0.4565597    0.00000       Uiso       1.00
        H1          H  0.5733216  0.5475973  0.5161382    0.00000       Uiso       1.00
        H2          H  0.4268221  0.5485861  0.5292206    0.00000       Uiso       1.00
        H3          H  0.3966841  0.5164028  0.4382772    0.00000       Uiso       1.00
        H4          H  0.4696793  0.4365692  0.4186276    0.00000       Uiso       1.00
        H5          H  0.5300907  0.4360494  0.4698402    0.00000       Uiso       1.00
        H6          H  0.6034493  0.5147789  0.4514188    0.00000       Uiso       1.00
       C19          C  0.4790903  0.8006908  0.8005158    0.00000       Uiso       1.00
       C20          C  0.5217282  0.8004168  0.7932593    0.00000       Uiso       1.00
       C21          C  0.5419245  0.7770834  0.7662451    0.00000       Uiso       1.00
       C22          C  0.5205357  0.7553463  0.7481311    0.00000       Uiso       1.00
       C23          C  0.4801682  0.7556211  0.7520282    0.00000       Uiso       1.00
       C24          C  0.4588315  0.7776428  0.7758299    0.00000       Uiso       1.00
        O7          O  0.4640386  0.7321673  0.7258028    0.00000       Uiso       1.00
        B4          B  0.5002993  0.7170690  0.7053363    0.00000       Uiso       1.00
        O8          O  0.5365998  0.7316725  0.7188185    0.00000       Uiso       1.00
       C25          C  0.4579751  0.8236583  0.8294551    0.00000       Uiso       1.00
       C26          C  0.4792669  0.8465945  0.8339374    0.00000       Uiso       1.00
       C27          C  0.4157205  0.8245462  0.8568534    0.00000       Uiso       1.00
       C28          C  0.3960266  0.8471501  0.8805832    0.00000       Uiso       1.00
       C29          C  0.4161615  0.8688723  0.8818544    0.00000       Uiso       1.00
       C30          C  0.4571760  0.8692563  0.8610328    0.00000       Uiso       1.00
        O9          O  0.3914999  0.8894983  0.9115392    0.00000       Uiso       1.00
        B5          B  0.3528015  0.8775158  0.9282758    0.00000       Uiso       1.00
       O10          O  0.3553083  0.8504523  0.9092749    0.00000       Uiso       1.00
       C31          C  0.5428775  0.8231464  0.8072541    0.00000       Uiso       1.00
       C32          C  0.5215396  0.8463470  0.8171915    0.00000       Uiso       1.00
       C33          C  0.5436224  0.8687754  0.8121029    0.00000       Uiso       1.00
       C34          C  0.5846919  0.8679168  0.8088291    0.00000       Uiso       1.00
       C35          C  0.6049004  0.8459495  0.8101869    0.00000       Uiso       1.00
       C36          C  0.5852191  0.8235556  0.8095484    0.00000       Uiso       1.00
       O11          O  0.6457030  0.8487971  0.8095183    0.00000       Uiso       1.00
        B6          B  0.6481739  0.8758548  0.8071929    0.00000       Uiso       1.00
       O12          O  0.6093778  0.8882838  0.8066573    0.00000       Uiso       1.00
        H7          H  0.5736145  0.7748809  0.7539504    0.00000       Uiso       1.00
        H8          H  0.4271170  0.7758901  0.7690694    0.00000       Uiso       1.00
        H9          H  0.3971771  0.8084831  0.8657948    0.00000       Uiso       1.00
       H10          H  0.4702323  0.8873207  0.8713850    0.00000       Uiso       1.00
       H11          H  0.5305321  0.8870173  0.8085538    0.00000       Uiso       1.00
       H12          H  0.6038777  0.8072875  0.8128564    0.00000       Uiso       1.00
       C37          C  0.0251607  0.2968528  0.4080385    0.00000       Uiso       1.00
       C38          C  0.9825425  0.2971638  0.4225796    0.00000       Uiso       1.00
       C39          C  0.9623942  0.2741246  0.4569734    0.00000       Uiso       1.00
       C40          C  0.9838096  0.2521096  0.4751373    0.00000       Uiso       1.00
       C41          C  0.0241637  0.2518324  0.4643401    0.00000       Uiso       1.00
       C42          C  0.0454575  0.2735468  0.4331869    0.00000       Uiso       1.00
       O13          O  0.0403346  0.2281778  0.4917978    0.00000       Uiso       1.00
        B7          B  0.0041138  0.2135874  0.5209766    0.00000       Uiso       1.00
       O14          O  0.9677971  0.2286752  0.5111851    0.00000       Uiso       1.00
       C43          C  0.0462242  0.3195125  0.3716260    0.00000       Uiso       1.00
       C44          C  0.0249295  0.3427342  0.3668713    0.00000       Uiso       1.00
       C45          C  0.0884249  0.3198071  0.3369082    0.00000       Uiso       1.00
       C46          C  0.1080763  0.3421261  0.3060071    0.00000       Uiso       1.00
       C47          C  0.0879439  0.3641201  0.3044722    0.00000       Uiso       1.00
       C48          C  0.0469718  0.3650760  0.3321884    0.00000       Uiso       1.00
       O15          O  0.1125519  0.3843897  0.2671091    0.00000       Uiso       1.00
        B8          B  0.1512145  0.3718702  0.2458366    0.00000       Uiso       1.00
       O16          O  0.1487389  0.3448549  0.2698476    0.00000       Uiso       1.00
       C49          C  0.9613737  0.3201708  0.4083253    0.00000       Uiso       1.00
       C50          C  0.9826930  0.3430731  0.3908333    0.00000       Uiso       1.00
       C51          C  0.9606240  0.3658040  0.3958681    0.00000       Uiso       1.00
       C52          C  0.9195662  0.3655066  0.4062601    0.00000       Uiso       1.00
       C53          C  0.8993568  0.3438147  0.4120582    0.00000       Uiso       1.00
       C54          C  0.9190345  0.3211547  0.4131514    0.00000       Uiso       1.00
       O17          O  0.8585616  0.3472180  0.4191719    0.00000       Uiso       1.00
        B9          B  0.8560972  0.3743092  0.4173291    0.00000       Uiso       1.00
       O18          O  0.8948894  0.3862099  0.4091701    0.00000       Uiso       1.00
       H13          H  0.9307302  0.2723616  0.4750198    0.00000       Uiso       1.00
       H14          H  0.0771789  0.2713670  0.4348582    0.00000       Uiso       1.00
       H15          H  0.1069487  0.3034867  0.3275433    0.00000       Uiso       1.00
       H16          H  0.0339009  0.3833103  0.3209926    0.00000       Uiso       1.00
       H17          H  0.9737200  0.3838691  0.3941010    0.00000       Uiso       1.00
       H18          H  0.9003716  0.3051392  0.4157703    0.00000       Uiso       1.00
       C55          C  0.0256908  0.0194608  0.7750412    0.00000       Uiso       1.00
       C56          C  0.9830521  0.0197311  0.7687064    0.00000       Uiso       1.00
       C57          C  0.9628507  0.0430456  0.7381957    0.00000       Uiso       1.00
       C58          C  0.9842361  0.0647686  0.7159117    0.00000       Uiso       1.00
       C59          C  0.0246038  0.0644953  0.7189391    0.00000       Uiso       1.00
       C60          C  0.0459449  0.0424903  0.7459891    0.00000       Uiso       1.00
       O19          O  0.0407283  0.0879298  0.6883725    0.00000       Uiso       1.00
       B10          B  0.0044638  0.1030145  0.6661701    0.00000       Uiso       1.00
       O20          O  0.9681666  0.0884218  0.6829514    0.00000       Uiso       1.00
       C61          C  0.0468108  0.9965138  0.8073939    0.00000       Uiso       1.00
       C62          C  0.0255192  0.9735825  0.8162481    0.00000       Uiso       1.00
       C63          C  0.0890713  0.9956432  0.8339822    0.00000       Uiso       1.00
       C64          C  0.1087695  0.9730558  0.8610963    0.00000       Uiso       1.00
       C65          C  0.0886342  0.9513364  0.8665075    0.00000       Uiso       1.00
       C66          C  0.0476153  0.9509396  0.8466830    0.00000       Uiso       1.00
       O21          O  0.1133016  0.9307308  0.8991282    0.00000       Uiso       1.00
       B11          B  0.1520040  0.9427227  0.9129539    0.00000       Uiso       1.00
       O22          O  0.1494939  0.9697720  0.8894222    0.00000       Uiso       1.00
       C67          C  0.9619043  0.9970131  0.7870342    0.00000       Uiso       1.00
       C68          C  0.9832436  0.9738199  0.8004206    0.00000       Uiso       1.00
       C69          C  0.9611590  0.9513900  0.7996362    0.00000       Uiso       1.00
       C70          C  0.9200889  0.9522476  0.7971491    0.00000       Uiso       1.00
       C71          C  0.8998815  0.9742151  0.7952408    0.00000       Uiso       1.00
       C72          C  0.9195634  0.9966066  0.7903586    0.00000       Uiso       1.00
       O23          O  0.8590788  0.9713683  0.7959811    0.00000       Uiso       1.00
       B12          B  0.8566064  0.9443107  0.7982996    0.00000       Uiso       1.00
       O24          O  0.8954019  0.9318808  0.7989910    0.00000       Uiso       1.00
       H19          H  0.9311581  0.0452406  0.7262475    0.00000       Uiso       1.00
       H20          H  0.0776578  0.0442374  0.7382121    0.00000       Uiso       1.00
       H21          H  0.1076178  0.0117104  0.8397787    0.00000       Uiso       1.00
       H22          H  0.0345606  0.9328835  0.8603939    0.00000       Uiso       1.00
       H23          H  0.9742479  0.9331464  0.7988833    0.00000       Uiso       1.00
       H24          H  0.9009067  0.0128763  0.7913315    0.00000       Uiso       1.00
        C1          C  0.5000882  0.6901144  0.6747816    0.00000       Uiso       1.00
        C2          C  0.4604560  0.6762308  0.6624248    0.00000       Uiso       1.00
        C3          C  0.5392226  0.6473253  0.6222976    0.00000       Uiso       1.00
        N1          N  0.5802613  0.6356872  0.6052716    0.00000       Uiso       1.00
        S1          S  0.6132162  0.6609637  0.6311986    0.00000       Uiso       1.00
        N2          N  0.5803257  0.6866896  0.6635181    0.00000       Uiso       1.00
       H25          H  0.4312071  0.6869918  0.6771568    0.00000       Uiso       1.00
       C76          C  0.5392560  0.6756139  0.6545240    0.00000       Uiso       1.00
       C77          C  0.4604241  0.6477824  0.6298172    0.00000       Uiso       1.00
       C78          C  0.5000184  0.6333621  0.6096248    0.00000       Uiso       1.00
       H27          H  0.4311582  0.6374172  0.6206986    0.00000       Uiso       1.00
       C79          C  0.8180841  0.3882591  0.4230083    0.00000       Uiso       1.00
       C80          C  0.6857323  0.4316590  0.4430117    0.00000       Uiso       1.00
        S1          S  0.8130256  0.4218075  0.4209371    0.00000       Uiso       1.00
        S2          S  0.6907905  0.3981106  0.4451419    0.00000       Uiso       1.00
       C81          C  0.7599490  0.4229619  0.4305745    0.00000       Uiso       1.00
       C82          C  0.7438681  0.3969580  0.4357585    0.00000       Uiso       1.00
       C83          C  0.7761117  0.3763396  0.4316131    0.00000       Uiso       1.00
       C84          C  0.7277055  0.4435804  0.4344769    0.00000       Uiso       1.00
       H29          H  0.7701324  0.3555904  0.4343909    0.00000       Uiso       1.00
       H30          H  0.7336850  0.4643295  0.4315466    0.00000       Uiso       1.00
       C85          C  0.1891782  0.3852715  0.2714420    0.00000       Uiso       1.00
       C86          C  0.3142008  0.4345733  0.3588800    0.00000       Uiso       1.00
        S3          S  0.2381110  0.3708637  0.2839352    0.00000       Uiso       1.00
        S4          S  0.2652678  0.4489813  0.3464457    0.00000       Uiso       1.00
       C87          C  0.2657478  0.3989369  0.3145072    0.00000       Uiso       1.00
       C88          C  0.2376321  0.4209062  0.3161278    0.00000       Uiso       1.00
       C89          C  0.1932659  0.4140276  0.2917781    0.00000       Uiso       1.00
       C90          C  0.3101150  0.4058157  0.3386141    0.00000       Uiso       1.00
       H31          H  0.1674706  0.4278575  0.2890661    0.00000       Uiso       1.00
       H32          H  0.3359107  0.3919860  0.3411737    0.00000       Uiso       1.00
       C91          C  0.8185833  0.9308793  0.7999393    0.00000       Uiso       1.00
       C92          C  0.6861984  0.8892847  0.8054182    0.00000       Uiso       1.00
        S5          S  0.8135149  0.8974000  0.8029860    0.00000       Uiso       1.00
        S6          S  0.6912663  0.9227641  0.8023127    0.00000       Uiso       1.00
       C93          C  0.7604290  0.8969696  0.8035670    0.00000       Uiso       1.00
       C94          C  0.7443527  0.9231928  0.8014776    0.00000       Uiso       1.00
       C95          C  0.7766075  0.9433714  0.7994145    0.00000       Uiso       1.00
       C96          C  0.7281749  0.8767909  0.8058730    0.00000       Uiso       1.00
       H33          H  0.7706330  0.9642020  0.7977868    0.00000       Uiso       1.00
       H34          H  0.7341498  0.8559602  0.8076532    0.00000       Uiso       1.00
       C97          C  0.1900958  0.9424417  1.0725318    0.00000       Uiso       1.00
       C98          C  0.3149014  0.8914363  0.9610484    0.00000       Uiso       1.00
        S7          S  0.2390012  0.9561824  1.0506212    0.00000       Uiso       1.00
        S8          S  0.2659958  0.8776955  0.9829002    0.00000       Uiso       1.00
       C99          C  0.2665603  0.9277328  1.0147371    0.00000       Uiso       1.00
      C100          C  0.2384371  0.9061469  1.0185301    0.00000       Uiso       1.00
      C101          C  0.1941301  0.9136302  1.0514145    0.00000       Uiso       1.00
      C102          C  0.3108688  0.9202492  0.9820951    0.00000       Uiso       1.00
       H35          H  0.1683390  0.9001521  1.0590922    0.00000       Uiso       1.00
       H36          H  0.3366608  0.9337271  0.9745699    0.00000       Uiso       1.00
      C103          C  0.0043709  0.1321931  0.6278562    0.00000       Uiso       1.00
      C104          C  0.0402485  0.1451226  0.6009552    0.00000       Uiso       1.00
      C105          C  0.9683300  0.1714773  0.5861953    0.00000       Uiso       1.00
       H37          H  0.0683660  0.1351661  0.6062693    0.00000       Uiso       1.00
      C106          C  0.9684111  0.1456177  0.6201519    0.00000       Uiso       1.00
      C107          C  0.0401670  0.1709822  0.5669991    0.00000       Uiso       1.00
       H38          H  0.9403553  0.1360484  0.6404773    0.00000       Uiso       1.00
      C108          C  0.0042067  0.1844073  0.5592934    0.00000       Uiso       1.00
       H39          H  0.0682214  0.1805534  0.5466722    0.00000       Uiso       1.00
       H40          H  0.9402139  0.1814357  0.5808778    0.00000       Uiso       1.00
