data_AEM-COF-1
_audit_creation_date              0000-00-00
_audit_creation_method            'LanYouShi'
_symmetry_space_group_name_H-M    'P1'
_cell_length_a                    35.5279999
_cell_length_b                    35.5279999
_cell_length_c                    3.3980000
_cell_angle_alpha                 90.0000000
_cell_angle_beta                  90.0000000
_cell_angle_gamma                 120.0000000
loop_
_atom_site_label
_atom_site_type_symbol
_atom_site_fract_x
_atom_site_fract_y
_atom_site_fract_z
_atom_site_U_iso_or_equiv
_atom_site_adp_type
_atom_site_occupancy
        H1          H  0.0399300  0.5809600  0.0000000    0.00000       Uiso       1.00
        C1          C  0.0228000  0.5456300  0.0000000    0.00000       Uiso       1.00
        O1          O  0.1228500  0.5961100  0.0000000    0.00000       Uiso       1.00
        C2          C  0.1644300  0.6016400  0.0000000    0.00000       Uiso       1.00
        C3          C  0.2032300  0.6415200  0.0000000    0.00000       Uiso       1.00
        H2          H  0.2024900  0.6717300  0.0000000    0.00000       Uiso       1.00
        C4          C  0.2429800  0.6415400  0.0000000    0.00000       Uiso       1.00
        C5          C  0.2833000  0.6826700  0.0000000    0.00000       Uiso       1.00
        H3          H  0.4190400  0.4589700  0.0000000    0.00000       Uiso       1.00
        C6          C  0.4543700  0.4771700  0.0000000    0.00000       Uiso       1.00
        O2          O  0.4038900  0.5267400  0.0000000    0.00000       Uiso       1.00
        C7          C  0.3983600  0.5627900  0.0000000    0.00000       Uiso       1.00
        C8          C  0.3584800  0.5617100  0.0000000    0.00000       Uiso       1.00
        H4          H  0.3282700  0.5307600  0.0000000    0.00000       Uiso       1.00
        C9          C  0.3584600  0.6014400  0.0000000    0.00000       Uiso       1.00
       C10          C  0.3173300  0.6006300  0.0000000    0.00000       Uiso       1.00
        H5          H  0.5410300  0.9600700  0.0000000    0.00000       Uiso       1.00
       C11          C  0.5228300  0.9772000  0.0000000    0.00000       Uiso       1.00
        O3          O  0.4732600  0.8771500  0.0000000    0.00000       Uiso       1.00
       C12          C  0.4372100  0.8355700  0.0000000    0.00000       Uiso       1.00
       C13          C  0.4382900  0.7967700  0.0000000    0.00000       Uiso       1.00
        H6          H  0.4692400  0.7975100  0.0000000    0.00000       Uiso       1.00
       C14          C  0.3985600  0.7570200  0.0000000    0.00000       Uiso       1.00
       C15          C  0.3993700  0.7167000  0.0000000    0.00000       Uiso       1.00
        H7          H  0.9600700  0.4190400  0.0000000    0.00000       Uiso       1.00
       C16          C  0.9772000  0.4543700  0.0000000    0.00000       Uiso       1.00
        O4          O  0.8771500  0.4038900  0.0000000    0.00000       Uiso       1.00
       C17          C  0.8355700  0.3983600  0.0000000    0.00000       Uiso       1.00
       C18          C  0.7967700  0.3584800  0.0000000    0.00000       Uiso       1.00
        H8          H  0.7975100  0.3282700  0.0000000    0.00000       Uiso       1.00
       C19          C  0.7570200  0.3584600  0.0000000    0.00000       Uiso       1.00
       C20          C  0.7167000  0.3173300  0.0000000    0.00000       Uiso       1.00
        H9          H  0.5809600  0.5410300  0.0000000    0.00000       Uiso       1.00
       C21          C  0.5456300  0.5228300  0.0000000    0.00000       Uiso       1.00
        O5          O  0.5961100  0.4732600  0.0000000    0.00000       Uiso       1.00
       C22          C  0.6016400  0.4372100  0.0000000    0.00000       Uiso       1.00
       C23          C  0.6415200  0.4382900  0.0000000    0.00000       Uiso       1.00
       H10          H  0.6717300  0.4692400  0.0000000    0.00000       Uiso       1.00
       C24          C  0.6415400  0.3985600  0.0000000    0.00000       Uiso       1.00
       C25          C  0.6826700  0.3993700  0.0000000    0.00000       Uiso       1.00
       H11          H  0.4589700  0.0399300  0.0000000    0.00000       Uiso       1.00
       C26          C  0.4771700  0.0228000  0.0000000    0.00000       Uiso       1.00
        O6          O  0.5267400  0.1228500  0.0000000    0.00000       Uiso       1.00
       C27          C  0.5627900  0.1644300  0.0000000    0.00000       Uiso       1.00
       C28          C  0.5617100  0.2032300  0.0000000    0.00000       Uiso       1.00
       H12          H  0.5307600  0.2024900  0.0000000    0.00000       Uiso       1.00
       C29          C  0.6014400  0.2429800  0.0000000    0.00000       Uiso       1.00
       C30          C  0.6006300  0.2833000  0.0000000    0.00000       Uiso       1.00
       H13          H  0.5809600  0.0399300  0.0000000    0.00000       Uiso       1.00
       C31          C  0.5456300  0.0228000  0.0000000    0.00000       Uiso       1.00
        O7          O  0.5961100  0.1228500  0.0000000    0.00000       Uiso       1.00
       C32          C  0.6016400  0.1644300  0.0000000    0.00000       Uiso       1.00
       C33          C  0.6415200  0.2032300  0.0000000    0.00000       Uiso       1.00
       H14          H  0.6717300  0.2024900  0.0000000    0.00000       Uiso       1.00
       C34          C  0.6415400  0.2429800  0.0000000    0.00000       Uiso       1.00
       C35          C  0.6826700  0.2833000  0.0000000    0.00000       Uiso       1.00
       H15          H  0.4589700  0.4190400  0.0000000    0.00000       Uiso       1.00
       C36          C  0.4771700  0.4543700  0.0000000    0.00000       Uiso       1.00
        O8          O  0.5267400  0.4038900  0.0000000    0.00000       Uiso       1.00
       C37          C  0.5627900  0.3983600  0.0000000    0.00000       Uiso       1.00
       C38          C  0.5617100  0.3584800  0.0000000    0.00000       Uiso       1.00
       H16          H  0.5307600  0.3282700  0.0000000    0.00000       Uiso       1.00
       C39          C  0.6014400  0.3584600  0.0000000    0.00000       Uiso       1.00
       C40          C  0.6006300  0.3173300  0.0000000    0.00000       Uiso       1.00
       H17          H  0.9600700  0.5410300  0.0000000    0.00000       Uiso       1.00
       C41          C  0.9772000  0.5228300  0.0000000    0.00000       Uiso       1.00
        O9          O  0.8771500  0.4732600  0.0000000    0.00000       Uiso       1.00
       C42          C  0.8355700  0.4372100  0.0000000    0.00000       Uiso       1.00
       C43          C  0.7967700  0.4382900  0.0000000    0.00000       Uiso       1.00
       H18          H  0.7975100  0.4692400  0.0000000    0.00000       Uiso       1.00
       C44          C  0.7570200  0.3985600  0.0000000    0.00000       Uiso       1.00
       C45          C  0.7167000  0.3993700  0.0000000    0.00000       Uiso       1.00
       H19          H  0.4190400  0.9600700  0.0000000    0.00000       Uiso       1.00
       C46          C  0.4543700  0.9772000  0.0000000    0.00000       Uiso       1.00
       O10          O  0.4038900  0.8771500  0.0000000    0.00000       Uiso       1.00
       C47          C  0.3983600  0.8355700  0.0000000    0.00000       Uiso       1.00
       C48          C  0.3584800  0.7967700  0.0000000    0.00000       Uiso       1.00
       H20          H  0.3282700  0.7975100  0.0000000    0.00000       Uiso       1.00
       C49          C  0.3584600  0.7570200  0.0000000    0.00000       Uiso       1.00
       C50          C  0.3173300  0.7167000  0.0000000    0.00000       Uiso       1.00
       H21          H  0.5410300  0.5809600  0.0000000    0.00000       Uiso       1.00
       C51          C  0.5228300  0.5456300  0.0000000    0.00000       Uiso       1.00
       O11          O  0.4732600  0.5961100  0.0000000    0.00000       Uiso       1.00
       C52          C  0.4372100  0.6016400  0.0000000    0.00000       Uiso       1.00
       C53          C  0.4382900  0.6415200  0.0000000    0.00000       Uiso       1.00
       H22          H  0.4692400  0.6717300  0.0000000    0.00000       Uiso       1.00
       C54          C  0.3985600  0.6415400  0.0000000    0.00000       Uiso       1.00
       C55          C  0.3993700  0.6826700  0.0000000    0.00000       Uiso       1.00
       H23          H  0.0399300  0.4589700  0.0000000    0.00000       Uiso       1.00
       C56          C  0.0228000  0.4771700  0.0000000    0.00000       Uiso       1.00
       O12          O  0.1228500  0.5267400  0.0000000    0.00000       Uiso       1.00
       C57          C  0.1644300  0.5627900  0.0000000    0.00000       Uiso       1.00
       C58          C  0.2032300  0.5617100  0.0000000    0.00000       Uiso       1.00
       H24          H  0.2024900  0.5307600  0.0000000    0.00000       Uiso       1.00
       C59          C  0.2429800  0.6014400  0.0000000    0.00000       Uiso       1.00
       C60          C  0.2833000  0.6006300  0.0000000    0.00000       Uiso       1.00
       C61          C  0.0458300  0.5229149  0.0000000    0.00000       Uiso       1.00
        B1          B  0.0967900  0.5483950  0.0000000    0.00000       Uiso       1.00
       C62          C  0.4770850  0.5229149  0.0000000    0.00000       Uiso       1.00
        B2          B  0.4516050  0.5483950  0.0000000    0.00000       Uiso       1.00
       C63          C  0.4770850  0.9541700  0.0000000    0.00000       Uiso       1.00
        B3          B  0.4516050  0.9032100  0.0000000    0.00000       Uiso       1.00
       C64          C  0.9541700  0.4770850  0.0000000    0.00000       Uiso       1.00
        B4          B  0.9032100  0.4516050  0.0000000    0.00000       Uiso       1.00
       C65          C  0.5229150  0.4770850  0.0000000    0.00000       Uiso       1.00
        B5          B  0.5483950  0.4516050  0.0000000    0.00000       Uiso       1.00
       C66          C  0.5229150  0.0458300  0.0000000    0.00000       Uiso       1.00
        B6          B  0.5483950  0.0967900  0.0000000    0.00000       Uiso       1.00
