data_MPCOF
_audit_creation_date              0000-00-00
_audit_creation_method            'LanYouShi'
_symmetry_space_group_name_H-M    'P1'
_cell_length_a                    16.6942005
_cell_length_b                    16.6942005
_cell_length_c                    6.7978001
_cell_angle_alpha                 90.0000000
_cell_angle_beta                  90.0000000
_cell_angle_gamma                 120.0000000
loop_
_atom_site_label
_atom_site_type_symbol
_atom_site_fract_x
_atom_site_fract_y
_atom_site_fract_z
_atom_site_U_iso_or_equiv
_atom_site_adp_type
_atom_site_occupancy
        N1          N  0.6480330  0.1742774  0.3253256    0.00000       Uiso       1.00
         H          H  0.7083268  0.1876705  0.2805825    0.00000       Uiso       1.00
        N1          N  0.8257234  0.4737556  0.3253256    0.00000       Uiso       1.00
         H          H  0.8123303  0.5206563  0.2805825    0.00000       Uiso       1.00
        N1          N  0.5262451  0.3519677  0.3253256    0.00000       Uiso       1.00
         H          H  0.4793445  0.2916740  0.2805825    0.00000       Uiso       1.00
        N1          N  0.3519678  0.8257234  0.3253256    0.00000       Uiso       1.00
         H          H  0.2916740  0.8123302  0.2805825    0.00000       Uiso       1.00
        N1          N  0.1742774  0.5262452  0.3253256    0.00000       Uiso       1.00
         H          H  0.1876705  0.4793445  0.2805825    0.00000       Uiso       1.00
        N1          N  0.4737556  0.6480330  0.3253256    0.00000       Uiso       1.00
         H          H  0.5206563  0.7083268  0.2805825    0.00000       Uiso       1.00
        N1          N  0.3519678  0.8257234  0.6746773    0.00000       Uiso       1.00
         H          H  0.2916740  0.8123302  0.7194204    0.00000       Uiso       1.00
        N1          N  0.1742774  0.5262452  0.6746773    0.00000       Uiso       1.00
         H          H  0.1876705  0.4793445  0.7194204    0.00000       Uiso       1.00
        N1          N  0.4737556  0.6480330  0.6746773    0.00000       Uiso       1.00
         H          H  0.5206563  0.7083268  0.7194204    0.00000       Uiso       1.00
        N1          N  0.6480330  0.1742774  0.6746773    0.00000       Uiso       1.00
         H          H  0.7083268  0.1876705  0.7194204    0.00000       Uiso       1.00
        N1          N  0.8257234  0.4737556  0.6746773    0.00000       Uiso       1.00
         H          H  0.8123303  0.5206563  0.7194204    0.00000       Uiso       1.00
        N1          N  0.5262451  0.3519677  0.6746773    0.00000       Uiso       1.00
         H          H  0.4793445  0.2916740  0.7194204    0.00000       Uiso       1.00
        C1          C  0.5745449  0.0923503  0.2703426    0.00000       Uiso       1.00
        C2          C  0.9076504  0.4821945  0.2703426    0.00000       Uiso       1.00
        C3          C  0.5178062  0.4254559  0.2703426    0.00000       Uiso       1.00
        C4          C  0.4254559  0.9076505  0.2703426    0.00000       Uiso       1.00
        C5          C  0.0923503  0.5178062  0.2703426    0.00000       Uiso       1.00
        C6          C  0.4821945  0.5745448  0.2703426    0.00000       Uiso       1.00
        C7          C  0.4254559  0.9076505  0.7296602    0.00000       Uiso       1.00
        C8          C  0.0923503  0.5178062  0.7296602    0.00000       Uiso       1.00
        C9          C  0.4821945  0.5745448  0.7296602    0.00000       Uiso       1.00
       C10          C  0.5745449  0.0923503  0.7296602    0.00000       Uiso       1.00
       C11          C  0.9076504  0.4821945  0.7296602    0.00000       Uiso       1.00
       C12          C  0.5178062  0.4254559  0.7296602    0.00000       Uiso       1.00
       C13          C  0.5917376  0.0182774  0.2486914    0.00000       Uiso       1.00
       C14          C  0.9817233  0.5734602  0.2486914    0.00000       Uiso       1.00
       C15          C  0.4265406  0.4082632  0.2486914    0.00000       Uiso       1.00
       C16          C  0.4082632  0.9817234  0.2486914    0.00000       Uiso       1.00
       C17          C  0.0182774  0.4265406  0.2486914    0.00000       Uiso       1.00
       C18          C  0.5734602  0.5917376  0.2486914    0.00000       Uiso       1.00
       C19          C  0.4082632  0.9817234  0.7513114    0.00000       Uiso       1.00
       C20          C  0.0182774  0.4265406  0.7513114    0.00000       Uiso       1.00
       C21          C  0.5734602  0.5917376  0.7513114    0.00000       Uiso       1.00
       C22          C  0.5917376  0.0182774  0.7513114    0.00000       Uiso       1.00
       C23          C  0.9817233  0.5734602  0.7513114    0.00000       Uiso       1.00
       C24          C  0.4265406  0.4082632  0.7513114    0.00000       Uiso       1.00
       C25          C  0.5176972  0.9264017  0.2545381    0.00000       Uiso       1.00
       C26          C  0.0735991  0.5912963  0.2545381    0.00000       Uiso       1.00
       C27          C  0.4087044  0.4823035  0.2545381    0.00000       Uiso       1.00
       C28          C  0.4823035  0.0735991  0.2545381    0.00000       Uiso       1.00
       C29          C  0.9264017  0.4087044  0.2545381    0.00000       Uiso       1.00
       C30          C  0.5912963  0.5176973  0.2545381    0.00000       Uiso       1.00
       C31          C  0.4823035  0.0735991  0.7454647    0.00000       Uiso       1.00
       C32          C  0.9264017  0.4087044  0.7454647    0.00000       Uiso       1.00
       C33          C  0.5912963  0.5176973  0.7454647    0.00000       Uiso       1.00
       C34          C  0.5176972  0.9264017  0.7454647    0.00000       Uiso       1.00
       C35          C  0.0735991  0.5912963  0.7454647    0.00000       Uiso       1.00
       C36          C  0.4087044  0.4823035  0.7454647    0.00000       Uiso       1.00
        H1          H  0.6580838  0.0303631  0.2432222    0.00000       Uiso       1.00
        H2          H  0.9696377  0.6277207  0.2432222    0.00000       Uiso       1.00
        H3          H  0.3722800  0.3419170  0.2432222    0.00000       Uiso       1.00
        H4          H  0.3419170  0.9696377  0.2432222    0.00000       Uiso       1.00
        H5          H  0.0303631  0.3722800  0.2432222    0.00000       Uiso       1.00
        H6          H  0.6277207  0.6580838  0.2432222    0.00000       Uiso       1.00
        H7          H  0.3419170  0.9696377  0.7567806    0.00000       Uiso       1.00
        H8          H  0.0303631  0.3722800  0.7567806    0.00000       Uiso       1.00
        H9          H  0.6277207  0.6580838  0.7567806    0.00000       Uiso       1.00
       H10          H  0.6580838  0.0303631  0.7567806    0.00000       Uiso       1.00
       H11          H  0.9696377  0.6277207  0.7567806    0.00000       Uiso       1.00
       H12          H  0.3722800  0.3419170  0.7567806    0.00000       Uiso       1.00
       H13          H  0.5312568  0.8732400  0.2525274    0.00000       Uiso       1.00
       H14          H  0.1267607  0.6580175  0.2525274    0.00000       Uiso       1.00
       H15          H  0.3419832  0.4687440  0.2525274    0.00000       Uiso       1.00
       H16          H  0.4687440  0.1267607  0.2525274    0.00000       Uiso       1.00
       H17          H  0.8732400  0.3419833  0.2525274    0.00000       Uiso       1.00
       H18          H  0.6580175  0.5312568  0.2525274    0.00000       Uiso       1.00
       H19          H  0.4687440  0.1267607  0.7474755    0.00000       Uiso       1.00
       H20          H  0.8732400  0.3419833  0.7474755    0.00000       Uiso       1.00
       H21          H  0.6580175  0.5312568  0.7474755    0.00000       Uiso       1.00
       H22          H  0.5312568  0.8732400  0.7474755    0.00000       Uiso       1.00
       H23          H  0.1267607  0.6580175  0.7474755    0.00000       Uiso       1.00
       H24          H  0.3419832  0.4687440  0.7474755    0.00000       Uiso       1.00
        P1          P  0.3507460  0.7659809  0.5000014    0.00000       Uiso       1.00
        P2          P  0.2340199  0.5847660  0.5000014    0.00000       Uiso       1.00
        P3          P  0.4152348  0.6492547  0.5000014    0.00000       Uiso       1.00
        N1          N  0.4283455  0.7448519  0.5000014    0.00000       Uiso       1.00
        N2          N  0.2551488  0.6834943  0.5000014    0.00000       Uiso       1.00
        N3          N  0.3165065  0.5716553  0.5000014    0.00000       Uiso       1.00
        P1          P  0.6492548  0.2340199  0.5000014    0.00000       Uiso       1.00
        P2          P  0.7659808  0.4152348  0.5000014    0.00000       Uiso       1.00
        P3          P  0.5847659  0.3507460  0.5000014    0.00000       Uiso       1.00
        N1          N  0.5716553  0.2551489  0.5000014    0.00000       Uiso       1.00
        N2          N  0.7448519  0.3165065  0.5000014    0.00000       Uiso       1.00
        N3          N  0.6834943  0.4283455  0.5000014    0.00000       Uiso       1.00
