data_crystal

_cell_length_a    8.38180
_cell_length_b    8.38180
_cell_length_c    6.98400
_cell_angle_alpha 90.00000
_cell_angle_beta  90.00000
_cell_angle_gamma 120.00000

_space_group_name_Hall 'P 1'
_space_group_name_H-M_alt  'P 1'

loop_
_symmetry_equiv_pos_as_xyz
'x,y,z' 

loop_
_atom_site_label
_atom_site_type_symbol
_atom_site_fract_x
_atom_site_fract_y
_atom_site_fract_z
C          C       0.83522   0.33294   0.25000 
C          C       0.66706   0.50228   0.25000 
C          C       0.49773   0.16479   0.25000 
C          C       0.16479   0.66706   0.25000 
C          C       0.33294   0.49773   0.25000 
C          C       0.50228   0.83522   0.25000 
C          C       0.33294   0.83522   0.25000 
C          C       0.50228   0.66706   0.25000 
C          C       0.16479   0.49773   0.25000 
C          C       0.66706   0.16479   0.25000 
C          C       0.49773   0.33294   0.25000 
C          C       0.83522   0.50228   0.25000 
N          N       0.33833   0.33833   0.25000 
N          N       0.66167   0.00000   0.25000 
N          N      -0.00000   0.66167   0.25000 
N          N       0.66167   0.66167   0.25000 
N          N       0.33833   0.00000   0.25000 
N          N      -0.00000   0.33833   0.25000 
C          C       0.83522   0.33294   0.75000 
C          C       0.66706   0.50228   0.75000 
C          C       0.49773   0.16479   0.75000 
C          C       0.16479   0.66706   0.75000 
C          C       0.33294   0.49773   0.75000 
C          C       0.50228   0.83522   0.75000 
C          C       0.33294   0.83522   0.75000 
C          C       0.50228   0.66706   0.75000 
C          C       0.16479   0.49773   0.75000 
C          C       0.66706   0.16479   0.75000 
C          C       0.49773   0.33294   0.75000 
C          C       0.83522   0.50228   0.75000 
N          N       0.33833   0.33833   0.75000 
N          N       0.66167   0.00000   0.75000 
N          N      -0.00000   0.66167   0.75000 
N          N       0.66167   0.66167   0.75000 
N          N       0.33833   0.00000   0.75000 
N          N      -0.00000   0.33833   0.75000 
