data_crystal
 
_cell_length_a    27.30900
_cell_length_b    29.07000
_cell_length_c    8.14440
_cell_angle_alpha 90.00000
_cell_angle_beta  90.00000
_cell_angle_gamma 79.92690
 
_space_group_name_Hall 'P 1'
_space_group_name_H-M_alt  'P 1'
 
loop_
_symmetry_equiv_pos_as_xyz
 'x,y,z' 
 
loop_
_atom_site_label
_atom_site_type_symbol
_atom_site_fract_x
_atom_site_fract_y
_atom_site_fract_z
C          C       0.57151   0.87800   0.18121 
C          C       0.52237   0.86894   0.18460 
C          C       0.48249   0.90683   0.18977 
C          C       0.49094   0.95342   0.18874 
C          C       0.54058   0.96218   0.18685 
C          C       0.58059   0.92417   0.18299 
C          C       0.54919   0.00867   0.18853 
H          H       0.60102   0.85108   0.17922 
H          H       0.44693   0.90017   0.19298 
H          H       0.61656   0.92977   0.18138 
H          H       0.58493   0.01494   0.18887 
N          N       0.51072   0.82556   0.18539 
C          C       0.53761   0.78434   0.13564 
H          H       0.57128   0.78400   0.07999 
C          C       0.07633   0.59481   0.38161 
C          C       0.11428   0.55500   0.37869 
C          C       0.10113   0.51039   0.38993 
C          C       0.05075   0.50495   0.39572 
C          C       0.01275   0.54523   0.39570 
C          C       0.02602   0.59003   0.39082 
C          C       0.96235   0.53992   0.39809 
H          H       0.08502   0.62753   0.37739 
H          H       0.12874   0.48163   0.39049 
H          H       0.99923   0.61943   0.39249 
H          H       0.93502   0.56893   0.39909 
N          N       0.16332   0.55656   0.36341 
C          C       0.18596   0.59067   0.30171 
H          H       0.16470   0.62012   0.25408 
C          C       0.58041   0.39048   0.23154 
C          C       0.52873   0.39064   0.22006 
C          C       0.49671   0.43517   0.22933 
C          C       0.51642   0.47765   0.23165 
C          C       0.56922   0.47507   0.23362 
C          C       0.60221   0.43106   0.24230 
C          C       0.58713   0.51772   0.22661 
C          C       0.55551   0.56077   0.23621 
H          H       0.60361   0.35891   0.23178 
H          H       0.62402   0.51875   0.21401 
H          H       0.57223   0.58927   0.24849 
C          C       0.65512   0.42483   0.26231 
C          C       0.68786   0.38909   0.17838 
C          C       0.73984   0.38305   0.19645 
C          C       0.76187   0.41404   0.29394 
C          C       0.72996   0.44930   0.38049 
C          C       0.67797   0.45323   0.36932 
H          H       0.67432   0.36726   0.09847 
H          H       0.76149   0.35654   0.13334 
H          H       0.74437   0.47188   0.45542 
H          H       0.65673   0.47738   0.44254 
C          C       0.48717   0.65339   0.19743 
C          C       0.52643   0.65876   0.08909 
C          C       0.54394   0.70128   0.07294 
C          C       0.52015   0.74185   0.15513 
C          C       0.47896   0.73800   0.25586 
C          C       0.46367   0.69465   0.27894 
H          H       0.54280   0.63141   0.01803 
H          H       0.57353   0.70254  -0.00312 
H          H       0.46041   0.76663   0.31687 
H          H       0.43535   0.69365   0.36022 
C          C       0.42849   0.12200   0.18121 
C          C       0.47763   0.13106   0.18460 
C          C       0.51751   0.09316   0.18977 
C          C       0.50906   0.04658   0.18874 
C          C       0.45942   0.03781   0.18685 
C          C       0.41941   0.07583   0.18299 
C          C       0.45081   0.99133   0.18853 
H          H       0.39899   0.14892   0.17922 
H          H       0.55307   0.09982   0.19298 
H          H       0.38344   0.07023   0.18138 
H          H       0.41507   0.98506   0.18887 
N          N       0.48928   0.17443   0.18539 
C          C       0.46239   0.21565   0.13564 
H          H       0.42872   0.21600   0.07999 
C          C       0.92368   0.40519   0.38161 
C          C       0.88572   0.44499   0.37869 
C          C       0.89887   0.48961   0.38993 
C          C       0.94925   0.49505   0.39572 
C          C       0.98726   0.45477   0.39570 
C          C       0.97399   0.40997   0.39082 
C          C       0.03765   0.46007   0.39809 
H          H       0.91498   0.37247   0.37739 
H          H       0.87126   0.51836   0.39049 
H          H       0.00077   0.38056   0.39249 
H          H       0.06498   0.43106   0.39909 
N          N       0.83668   0.44344   0.36341 
C          C       0.81404   0.40933   0.30171 
H          H       0.83530   0.37987   0.25408 
C          C       0.41959   0.60952   0.23154 
C          C       0.47128   0.60935   0.22006 
C          C       0.50329   0.56482   0.22933 
C          C       0.48358   0.52235   0.23165 
C          C       0.43078   0.52493   0.23362 
C          C       0.39779   0.56894   0.24230 
C          C       0.41288   0.48228   0.22661 
C          C       0.44450   0.43923   0.23621 
H          H       0.39639   0.64109   0.23178 
H          H       0.37598   0.48125   0.21401 
H          H       0.42777   0.41073   0.24849 
C          C       0.34489   0.57517   0.26231 
C          C       0.31214   0.61091   0.17838 
C          C       0.26016   0.61694   0.19645 
C          C       0.23813   0.58596   0.29394 
C          C       0.27004   0.55070   0.38049 
C          C       0.32203   0.54677   0.36932 
H          H       0.32568   0.63274   0.09847 
H          H       0.23851   0.64346   0.13334 
H          H       0.25563   0.52811   0.45542 
H          H       0.34327   0.52262   0.44254 
C          C       0.51283   0.34661   0.19743 
C          C       0.47357   0.34124   0.08909 
C          C       0.45607   0.29872   0.07294 
C          C       0.47986   0.25815   0.15513 
C          C       0.52104   0.26200   0.25586 
C          C       0.53633   0.30535   0.27894 
H          H       0.45720   0.36858   0.01803 
H          H       0.42647   0.29746  -0.00312 
H          H       0.53959   0.23337   0.31687 
H          H       0.56466   0.30635   0.36022 
C          C       0.57151   0.87800   0.68121 
C          C       0.52237   0.86894   0.68460 
C          C       0.48249   0.90683   0.68977 
C          C       0.49094   0.95342   0.68874 
C          C       0.54058   0.96218   0.68685 
C          C       0.58059   0.92417   0.68299 
C          C       0.54919   0.00867   0.68853 
H          H       0.60102   0.85108   0.67922 
H          H       0.44693   0.90017   0.69298 
H          H       0.61656   0.92977   0.68138 
H          H       0.58493   0.01494   0.68886 
N          N       0.51072   0.82556   0.68539 
C          C       0.53761   0.78434   0.63564 
H          H       0.57128   0.78400   0.57999 
C          C       0.07633   0.59481   0.88161 
C          C       0.11428   0.55500   0.87869 
C          C       0.10113   0.51039   0.88992 
C          C       0.05075   0.50495   0.89572 
C          C       0.01275   0.54523   0.89570 
C          C       0.02602   0.59003   0.89082 
C          C       0.96235   0.53992   0.89809 
H          H       0.08502   0.62753   0.87739 
H          H       0.12874   0.48163   0.89049 
H          H       0.99923   0.61943   0.89250 
H          H       0.93502   0.56893   0.89909 
N          N       0.16332   0.55656   0.86342 
C          C       0.18596   0.59067   0.80171 
H          H       0.16470   0.62012   0.75408 
C          C       0.58041   0.39048   0.73154 
C          C       0.52873   0.39064   0.72006 
C          C       0.49671   0.43517   0.72933 
C          C       0.51642   0.47765   0.73166 
C          C       0.56922   0.47507   0.73362 
C          C       0.60221   0.43106   0.74230 
C          C       0.58713   0.51772   0.72661 
C          C       0.55551   0.56077   0.73621 
H          H       0.60361   0.35891   0.73177 
H          H       0.62402   0.51875   0.71401 
H          H       0.57223   0.58927   0.74849 
C          C       0.65512   0.42483   0.76231 
C          C       0.68786   0.38909   0.67837 
C          C       0.73984   0.38305   0.69645 
C          C       0.76187   0.41404   0.79394 
C          C       0.72996   0.44930   0.88049 
C          C       0.67797   0.45323   0.86931 
H          H       0.67432   0.36726   0.59847 
H          H       0.76149   0.35654   0.63334 
H          H       0.74437   0.47188   0.95542 
H          H       0.65673   0.47738   0.94254 
C          C       0.48717   0.65339   0.69744 
C          C       0.52643   0.65876   0.58909 
C          C       0.54394   0.70128   0.57295 
C          C       0.52015   0.74185   0.65513 
C          C       0.47896   0.73800   0.75586 
C          C       0.46367   0.69465   0.77894 
H          H       0.54280   0.63141   0.51803 
H          H       0.57353   0.70254   0.49688 
H          H       0.46041   0.76663   0.81687 
H          H       0.43535   0.69365   0.86022 
C          C       0.42849   0.12200   0.68121 
C          C       0.47763   0.13106   0.68460 
C          C       0.51751   0.09316   0.68977 
C          C       0.50906   0.04658   0.68874 
C          C       0.45942   0.03781   0.68685 
C          C       0.41941   0.07583   0.68299 
C          C       0.45081   0.99133   0.68853 
H          H       0.39899   0.14892   0.67922 
H          H       0.55307   0.09982   0.69298 
H          H       0.38344   0.07023   0.68138 
H          H       0.41507   0.98506   0.68886 
N          N       0.48928   0.17443   0.68539 
C          C       0.46239   0.21565   0.63564 
H          H       0.42872   0.21600   0.57999 
C          C       0.92368   0.40519   0.88161 
C          C       0.88572   0.44499   0.87869 
C          C       0.89887   0.48961   0.88992 
C          C       0.94925   0.49505   0.89572 
C          C       0.98726   0.45477   0.89570 
C          C       0.97399   0.40997   0.89082 
C          C       0.03765   0.46007   0.89809 
H          H       0.91498   0.37247   0.87739 
H          H       0.87126   0.51836   0.89049 
H          H       0.00077   0.38056   0.89250 
H          H       0.06498   0.43106   0.89909 
N          N       0.83668   0.44344   0.86342 
C          C       0.81404   0.40933   0.80171 
H          H       0.83530   0.37987   0.75408 
C          C       0.41959   0.60952   0.73154 
C          C       0.47128   0.60935   0.72006 
C          C       0.50329   0.56482   0.72933 
C          C       0.48358   0.52235   0.73166 
C          C       0.43078   0.52493   0.73362 
C          C       0.39779   0.56894   0.74230 
C          C       0.41288   0.48228   0.72661 
C          C       0.44450   0.43923   0.73621 
H          H       0.39639   0.64109   0.73177 
H          H       0.37598   0.48125   0.71401 
H          H       0.42777   0.41073   0.74849 
C          C       0.34489   0.57517   0.76231 
C          C       0.31214   0.61091   0.67837 
C          C       0.26016   0.61694   0.69645 
C          C       0.23813   0.58596   0.79394 
C          C       0.27004   0.55070   0.88049 
C          C       0.32203   0.54677   0.86931 
H          H       0.32568   0.63274   0.59847 
H          H       0.23851   0.64346   0.63334 
H          H       0.25563   0.52811   0.95542 
H          H       0.34327   0.52262   0.94254 
C          C       0.51283   0.34661   0.69744 
C          C       0.47357   0.34124   0.58909 
C          C       0.45607   0.29872   0.57295 
C          C       0.47986   0.25815   0.65513 
C          C       0.52104   0.26200   0.75586 
C          C       0.53633   0.30535   0.77894 
H          H       0.45720   0.36858   0.51803 
H          H       0.42647   0.29746   0.49688 
H          H       0.53959   0.23337   0.81687 
H          H       0.56466   0.30635   0.86022 
