data_crystal
 
_cell_length_a    29.07000
_cell_length_b    4.07220
_cell_length_c    27.30900
_cell_angle_alpha 90.00000
_cell_angle_beta  79.92690
_cell_angle_gamma 90.00000
 
_symmetry_space_group_name_Hall 'P 1'
_symmetry_space_group_name_H-M  'P 1'
 
loop_
_symmetry_equiv_pos_as_xyz
 'x,y,z' 
 
loop_
_atom_site_label
_atom_site_type_symbol
_atom_site_fract_x
_atom_site_fract_y
_atom_site_fract_z
_atom_site_charge
C          C       0.87800   0.36242   0.57151   0.0000000000
C          C       0.86894   0.36920   0.52237   0.0000000000
C          C       0.90683   0.37954   0.48249   0.0000000000
C          C       0.95342   0.37748   0.49094   0.0000000000
C          C       0.96218   0.37370   0.54058   0.0000000000
C          C       0.92417   0.36597   0.58059   0.0000000000
C          C       0.00867   0.37706   0.54919   0.0000000000
H          H       0.85108   0.35843   0.60102   0.0000000000
H          H       0.90017   0.38596   0.44693   0.0000000000
H          H       0.92977   0.36275   0.61656   0.0000000000
H          H       0.01494   0.37773   0.58493   0.0000000000
N          N       0.82556   0.37078   0.51072   0.0000000000
C          C       0.78434   0.27127   0.53761   0.0000000000
H          H       0.78400   0.15998   0.57128   0.0000000000
C          C       0.59481   0.76321   0.07633   0.0000000000
C          C       0.55500   0.75738   0.11428   0.0000000000
C          C       0.51039   0.77985   0.10113   0.0000000000
C          C       0.50495   0.79144   0.05075   0.0000000000
C          C       0.54523   0.79139   0.01275   0.0000000000
C          C       0.59003   0.78165   0.02602   0.0000000000
C          C       0.53992   0.79619   0.96235   0.0000000000
H          H       0.62753   0.75477   0.08502   0.0000000000
H          H       0.48163   0.78099   0.12874   0.0000000000
H          H       0.61943   0.78499   0.99923   0.0000000000
H          H       0.56893   0.79818   0.93502   0.0000000000
N          N       0.55656   0.72683   0.16332   0.0000000000
C          C       0.59067   0.60342   0.18596   0.0000000000
H          H       0.62012   0.50816   0.16470   0.0000000000
C          C       0.39048   0.46308   0.58041   0.0000000000
C          C       0.39064   0.44012   0.52873   0.0000000000
C          C       0.43517   0.45866   0.49671   0.0000000000
C          C       0.47765   0.46331   0.51642   0.0000000000
C          C       0.47507   0.46725   0.56922   0.0000000000
C          C       0.43106   0.48461   0.60221   0.0000000000
C          C       0.51772   0.45321   0.58713   0.0000000000
C          C       0.56077   0.47242   0.55551   0.0000000000
H          H       0.35891   0.46355   0.60361   0.0000000000
H          H       0.51875   0.42801   0.62402   0.0000000000
H          H       0.58927   0.49698   0.57223   0.0000000000
C          C       0.42483   0.52462   0.65512   0.0000000000
C          C       0.38909   0.35675   0.68786   0.0000000000
C          C       0.38305   0.39290   0.73984   0.0000000000
C          C       0.41404   0.58788   0.76187   0.0000000000
C          C       0.44930   0.76097   0.72996   0.0000000000
C          C       0.45323   0.73863   0.67797   0.0000000000
H          H       0.36726   0.19694   0.67432   0.0000000000
H          H       0.35654   0.26667   0.76149   0.0000000000
H          H       0.47188   0.91083   0.74437   0.0000000000
H          H       0.47738   0.88508   0.65673   0.0000000000
C          C       0.65339   0.39487   0.48717   0.0000000000
C          C       0.65876   0.17819   0.52643   0.0000000000
C          C       0.70128   0.14589   0.54394   0.0000000000
C          C       0.74185   0.31026   0.52015   0.0000000000
C          C       0.73800   0.51172   0.47896   0.0000000000
C          C       0.69465   0.55788   0.46367   0.0000000000
H          H       0.63141   0.03607   0.54280   0.0000000000
H          H       0.70254  -0.00624   0.57353   0.0000000000
H          H       0.76663   0.63373   0.46041   0.0000000000
H          H       0.69365   0.72043   0.43535   0.0000000000
C          C       0.12200   0.36242   0.42849   0.0000000000
C          C       0.13106   0.36920   0.47763   0.0000000000
C          C       0.09316   0.37954   0.51751   0.0000000000
C          C       0.04658   0.37748   0.50906   0.0000000000
C          C       0.03781   0.37370   0.45942   0.0000000000
C          C       0.07583   0.36597   0.41941   0.0000000000
C          C       0.99133   0.37706   0.45081   0.0000000000
H          H       0.14892   0.35843   0.39899   0.0000000000
H          H       0.09982   0.38596   0.55307   0.0000000000
H          H       0.07023   0.36275   0.38344   0.0000000000
H          H       0.98506   0.37773   0.41507   0.0000000000
N          N       0.17443   0.37078   0.48928   0.0000000000
C          C       0.21565   0.27127   0.46239   0.0000000000
H          H       0.21600   0.15998   0.42872   0.0000000000
C          C       0.40519   0.76321   0.92368   0.0000000000
C          C       0.44499   0.75738   0.88572   0.0000000000
C          C       0.48961   0.77985   0.89887   0.0000000000
C          C       0.49505   0.79144   0.94925   0.0000000000
C          C       0.45477   0.79139   0.98726   0.0000000000
C          C       0.40997   0.78165   0.97399   0.0000000000
C          C       0.46007   0.79619   0.03765   0.0000000000
H          H       0.37247   0.75477   0.91498   0.0000000000
H          H       0.51836   0.78099   0.87126   0.0000000000
H          H       0.38056   0.78499   0.00077   0.0000000000
H          H       0.43106   0.79818   0.06498   0.0000000000
N          N       0.44344   0.72683   0.83668   0.0000000000
C          C       0.40933   0.60342   0.81404   0.0000000000
H          H       0.37987   0.50816   0.83530   0.0000000000
C          C       0.60952   0.46308   0.41959   0.0000000000
C          C       0.60935   0.44012   0.47128   0.0000000000
C          C       0.56482   0.45866   0.50329   0.0000000000
C          C       0.52235   0.46331   0.48358   0.0000000000
C          C       0.52493   0.46725   0.43078   0.0000000000
C          C       0.56894   0.48461   0.39779   0.0000000000
C          C       0.48228   0.45321   0.41288   0.0000000000
C          C       0.43923   0.47242   0.44450   0.0000000000
H          H       0.64109   0.46355   0.39639   0.0000000000
H          H       0.48125   0.42801   0.37598   0.0000000000
H          H       0.41073   0.49698   0.42777   0.0000000000
C          C       0.57517   0.52462   0.34489   0.0000000000
C          C       0.61091   0.35675   0.31214   0.0000000000
C          C       0.61694   0.39290   0.26016   0.0000000000
C          C       0.58596   0.58788   0.23813   0.0000000000
C          C       0.55070   0.76097   0.27004   0.0000000000
C          C       0.54677   0.73863   0.32203   0.0000000000
H          H       0.63274   0.19694   0.32568   0.0000000000
H          H       0.64346   0.26667   0.23851   0.0000000000
H          H       0.52811   0.91083   0.25563   0.0000000000
H          H       0.52262   0.88508   0.34327   0.0000000000
C          C       0.34661   0.39487   0.51283   0.0000000000
C          C       0.34124   0.17819   0.47357   0.0000000000
C          C       0.29872   0.14589   0.45607   0.0000000000
C          C       0.25815   0.31026   0.47986   0.0000000000
C          C       0.26200   0.51172   0.52104   0.0000000000
C          C       0.30535   0.55788   0.53633   0.0000000000
H          H       0.36858   0.03607   0.45720   0.0000000000
H          H       0.29746  -0.00624   0.42647   0.0000000000
H          H       0.23337   0.63373   0.53959   0.0000000000
H          H       0.30635   0.72043   0.56466   0.0000000000
