data_crystal
 
_cell_length_a    41.97310
_cell_length_b    6.80100
_cell_length_c    42.04140
_cell_angle_alpha 90.00000
_cell_angle_beta  90.00160
_cell_angle_gamma 90.00000
 
_symmetry_space_group_name_Hall 'P 1'
_symmetry_space_group_name_H-M  'P 1'
 
loop_
_symmetry_equiv_pos_as_xyz
 'x,y,z' 
 
loop_
_atom_site_label
_atom_site_type_symbol
_atom_site_fract_x
_atom_site_fract_y
_atom_site_fract_z
_atom_site_charge
N          N       0.44971   0.50000   0.50834   0.0000000000
N          N       0.55023   0.50000   0.49173   0.0000000000
N          N       0.94994   0.50000   0.00834   0.0000000000
N          N       0.04999   0.50000   0.99173   0.0000000000
H          H       0.47251   0.50000   0.50458   0.0000000000
H          H       0.52742   0.50000   0.49549   0.0000000000
H          H       0.97274   0.50000   0.00458   0.0000000000
H          H       0.02719   0.50000   0.99549   0.0000000000
C          C       0.42765   0.50000   0.48496   0.0000000000
C          C       0.57228   0.50000   0.51511   0.0000000000
C          C       0.92777   0.50000   0.98497   0.0000000000
C          C       0.07216   0.50000   0.01510   0.0000000000
C          C       0.43637   0.50000   0.53758   0.0000000000
C          C       0.56356   0.50000   0.46249   0.0000000000
C          C       0.93655   0.50000   0.03757   0.0000000000
C          C       0.06338   0.50000   0.96249   0.0000000000
C          C       0.39813   0.50000   0.50025   0.0000000000
C          C       0.60180   0.50000   0.49982   0.0000000000
C          C       0.89832   0.50000   0.00026   0.0000000000
C          C       0.10161   0.50000   0.99981   0.0000000000
C          C       0.40350   0.50000   0.53259   0.0000000000
C          C       0.59644   0.50000   0.46748   0.0000000000
C          C       0.90368   0.50000   0.03259   0.0000000000
C          C       0.09625   0.50000   0.96748   0.0000000000
H          H       0.37618   0.50000   0.48974   0.0000000000
H          H       0.62375   0.50000   0.51033   0.0000000000
H          H       0.87629   0.50000   0.98976   0.0000000000
H          H       0.12364   0.50000   0.01031   0.0000000000
H          H       0.38610   0.50000   0.54960   0.0000000000
H          H       0.61383   0.50000   0.45047   0.0000000000
H          H       0.88628   0.50000   0.04959   0.0000000000
H          H       0.11365   0.50000   0.95048   0.0000000000
N          N       0.99173   0.50000   0.95061   0.0000000000
N          N       0.00820   0.50000   0.04946   0.0000000000
N          N       0.49178   0.50000   0.45065   0.0000000000
N          N       0.50815   0.50000   0.54941   0.0000000000
C          C       0.96256   0.50000   0.93677   0.0000000000
C          C       0.03737   0.50000   0.06330   0.0000000000
C          C       0.46259   0.50000   0.43682   0.0000000000
C          C       0.53735   0.50000   0.56325   0.0000000000
C          C       0.98505   0.50000   0.07201   0.0000000000
C          C       0.01488   0.50000   0.92806   0.0000000000
C          C       0.48498   0.50000   0.57190   0.0000000000
C          C       0.51495   0.50000   0.42817   0.0000000000
C          C       0.96739   0.50000   0.90392   0.0000000000
C          C       0.03255   0.50000   0.09615   0.0000000000
C          C       0.46743   0.50000   0.40398   0.0000000000
C          C       0.53250   0.50000   0.59609   0.0000000000
C          C       0.00023   0.50000   0.10149   0.0000000000
C          C       0.99971   0.50000   0.89858   0.0000000000
C          C       0.50018   0.50000   0.60143   0.0000000000
C          C       0.49975   0.50000   0.39864   0.0000000000
H          H       0.95033   0.50000   0.88658   0.0000000000
H          H       0.04961   0.50000   0.11349   0.0000000000
H          H       0.45038   0.50000   0.38662   0.0000000000
H          H       0.54955   0.50000   0.61345   0.0000000000
H          H       0.98967   0.50000   0.12347   0.0000000000
H          H       0.01027   0.50000   0.87660   0.0000000000
H          H       0.48963   0.50000   0.62335   0.0000000000
H          H       0.51030   0.50000   0.37672   0.0000000000
C          C       0.43233   0.50000   0.45165   0.0000000000
C          C       0.56760   0.50000   0.54841   0.0000000000
C          C       0.93234   0.50000   0.95166   0.0000000000
C          C       0.06759   0.50000   0.04841   0.0000000000
C          C       0.45155   0.50000   0.56759   0.0000000000
C          C       0.54839   0.50000   0.43248   0.0000000000
C          C       0.95164   0.50000   0.06764   0.0000000000
C          C       0.04830   0.50000   0.93243   0.0000000000
C          C       0.40496   0.50000   0.43207   0.0000000000
C          C       0.59497   0.50000   0.56799   0.0000000000
C          C       0.90495   0.50000   0.93211   0.0000000000
C          C       0.09498   0.50000   0.06796   0.0000000000
C          C       0.43202   0.50000   0.59497   0.0000000000
C          C       0.56792   0.50000   0.40510   0.0000000000
C          C       0.93207   0.50000   0.09499   0.0000000000
C          C       0.06787   0.50000   0.90508   0.0000000000
C          C       0.89107   0.67920   0.92232   0.0000000000
C          C       0.10886   0.67920   0.07775   0.0000000000
C          C       0.10886   0.32081   0.07775   0.0000000000
C          C       0.89107   0.32081   0.92232   0.0000000000
C          C       0.39109   0.67920   0.42227   0.0000000000
C          C       0.60884   0.67920   0.57780   0.0000000000
C          C       0.60884   0.32081   0.57780   0.0000000000
C          C       0.39109   0.32081   0.42227   0.0000000000
C          C       0.92227   0.32081   0.10885   0.0000000000
C          C       0.07767   0.32081   0.89122   0.0000000000
C          C       0.07767   0.67920   0.89122   0.0000000000
C          C       0.92227   0.67920   0.10885   0.0000000000
C          C       0.42223   0.32081   0.60884   0.0000000000
C          C       0.57770   0.32081   0.39123   0.0000000000
C          C       0.57770   0.67920   0.39123   0.0000000000
C          C       0.42223   0.67920   0.60884   0.0000000000
H          H       0.40084   0.81032   0.42921   0.0000000000
H          H       0.59909   0.81032   0.57086   0.0000000000
H          H       0.59909   0.18968   0.57086   0.0000000000
H          H       0.40084   0.18968   0.42921   0.0000000000
H          H       0.90083   0.81032   0.92925   0.0000000000
H          H       0.09911   0.81032   0.07082   0.0000000000
H          H       0.09911   0.18968   0.07082   0.0000000000
H          H       0.90083   0.18968   0.92925   0.0000000000
H          H       0.42916   0.18968   0.59909   0.0000000000
H          H       0.57078   0.18968   0.40098   0.0000000000
H          H       0.57078   0.81032   0.40098   0.0000000000
H          H       0.42916   0.81032   0.59909   0.0000000000
H          H       0.92920   0.18968   0.09911   0.0000000000
H          H       0.07074   0.18968   0.90096   0.0000000000
H          H       0.07074   0.81032   0.90096   0.0000000000
H          H       0.92920   0.81032   0.09911   0.0000000000
C          C       0.36369   0.67918   0.40298   0.0000000000
C          C       0.63625   0.67918   0.59709   0.0000000000
C          C       0.63625   0.32082   0.59709   0.0000000000
C          C       0.36369   0.32082   0.40298   0.0000000000
C          C       0.86364   0.67918   0.90305   0.0000000000
C          C       0.13629   0.67918   0.09701   0.0000000000
C          C       0.13629   0.32082   0.09701   0.0000000000
C          C       0.86364   0.32082   0.90305   0.0000000000
C          C       0.40299   0.32082   0.63626   0.0000000000
C          C       0.59694   0.32082   0.36381   0.0000000000
C          C       0.59694   0.67918   0.36381   0.0000000000
C          C       0.40299   0.67918   0.63626   0.0000000000
C          C       0.90299   0.32082   0.13625   0.0000000000
C          C       0.09694   0.32082   0.86382   0.0000000000
C          C       0.09694   0.67918   0.86382   0.0000000000
C          C       0.90299   0.67918   0.13625   0.0000000000
H          H       0.35383   0.81038   0.39620   0.0000000000
H          H       0.64610   0.81038   0.60387   0.0000000000
H          H       0.64610   0.18962   0.60387   0.0000000000
H          H       0.35383   0.18962   0.39620   0.0000000000
H          H       0.85378   0.81039   0.89629   0.0000000000
H          H       0.14615   0.81039   0.10378   0.0000000000
H          H       0.14615   0.18962   0.10378   0.0000000000
H          H       0.85378   0.18962   0.89629   0.0000000000
H          H       0.39623   0.18962   0.64612   0.0000000000
H          H       0.60371   0.18962   0.35395   0.0000000000
H          H       0.60371   0.81038   0.35395   0.0000000000
H          H       0.39623   0.81038   0.64612   0.0000000000
H          H       0.89622   0.18962   0.14610   0.0000000000
H          H       0.10371   0.18962   0.85397   0.0000000000
H          H       0.10371   0.81039   0.85397   0.0000000000
H          H       0.89622   0.81039   0.14610   0.0000000000
C          C       0.34976   0.50000   0.39315   0.0000000000
C          C       0.65018   0.50000   0.60692   0.0000000000
C          C       0.84971   0.50000   0.89324   0.0000000000
C          C       0.15023   0.50000   0.10683   0.0000000000
C          C       0.39318   0.50000   0.65019   0.0000000000
C          C       0.60675   0.50000   0.34988   0.0000000000
C          C       0.89317   0.50000   0.15018   0.0000000000
C          C       0.10676   0.50000   0.84989   0.0000000000
C          C       0.77057   0.50000   0.22287   0.0000000000
C          C       0.22936   0.50000   0.77720   0.0000000000
C          C       0.73707   0.50000   0.21923   0.0000000000
C          C       0.26287   0.50000   0.78084   0.0000000000
C          C       0.71681   0.50000   0.24593   0.0000000000
C          C       0.28313   0.50000   0.75414   0.0000000000
C          C       0.72935   0.50000   0.27719   0.0000000000
C          C       0.27059   0.50000   0.72288   0.0000000000
C          C       0.76285   0.50000   0.28084   0.0000000000
C          C       0.23708   0.50000   0.71923   0.0000000000
C          C       0.78311   0.50000   0.25414   0.0000000000
C          C       0.21682   0.50000   0.74593   0.0000000000
C          C       0.79043   0.50000   0.19582   0.0000000000
C          C       0.20950   0.50000   0.80424   0.0000000000
H          H       0.72701   0.50000   0.19703   0.0000000000
H          H       0.27293   0.50000   0.80304   0.0000000000
H          H       0.69264   0.50000   0.24235   0.0000000000
H          H       0.30729   0.50000   0.75772   0.0000000000
C          C       0.70948   0.50000   0.30424   0.0000000000
C          C       0.29045   0.50000   0.69583   0.0000000000
H          H       0.77291   0.50000   0.30304   0.0000000000
H          H       0.22702   0.50000   0.69703   0.0000000000
H          H       0.80727   0.50000   0.25773   0.0000000000
H          H       0.19266   0.50000   0.74234   0.0000000000
N          N       0.82247   0.50000   0.19817   0.0000000000
N          N       0.17746   0.50000   0.80190   0.0000000000
N          N       0.67745   0.50000   0.30187   0.0000000000
N          N       0.32248   0.50000   0.69820   0.0000000000
N          N       0.84192   0.50000   0.17415   0.0000000000
N          N       0.15801   0.50000   0.82592   0.0000000000
N          N       0.65800   0.50000   0.32589   0.0000000000
N          N       0.34194   0.50000   0.67418   0.0000000000
H          H       0.83340   0.50000   0.15276   0.0000000000
H          H       0.16653   0.50000   0.84731   0.0000000000
C          C       0.87393   0.50000   0.17745   0.0000000000
C          C       0.12600   0.50000   0.82262   0.0000000000
C          C       0.62599   0.50000   0.32259   0.0000000000
C          C       0.37395   0.50000   0.67748   0.0000000000
O          O       0.88702   0.50000   0.20423   0.0000000000
O          O       0.11291   0.50000   0.79584   0.0000000000
H          H       0.66651   0.50000   0.34727   0.0000000000
H          H       0.33342   0.50000   0.65280   0.0000000000
O          O       0.61288   0.50000   0.29582   0.0000000000
O          O       0.38705   0.50000   0.70425   0.0000000000
H          H       0.71945   0.50000   0.32646   0.0000000000
H          H       0.28048   0.50000   0.67361   0.0000000000
C          C       0.22287   0.50000   0.22934   0.0000000000
C          C       0.77706   0.50000   0.77073   0.0000000000
C          C       0.21916   0.50000   0.26279   0.0000000000
C          C       0.78077   0.50000   0.73728   0.0000000000
C          C       0.24587   0.50000   0.28306   0.0000000000
C          C       0.75406   0.50000   0.71701   0.0000000000
C          C       0.27721   0.50000   0.27060   0.0000000000
C          C       0.72272   0.50000   0.72947   0.0000000000
C          C       0.28091   0.50000   0.23715   0.0000000000
C          C       0.71902   0.50000   0.76292   0.0000000000
C          C       0.25421   0.50000   0.21688   0.0000000000
C          C       0.74573   0.50000   0.78319   0.0000000000
C          C       0.19581   0.50000   0.20947   0.0000000000
C          C       0.80412   0.50000   0.79060   0.0000000000
H          H       0.19691   0.50000   0.27279   0.0000000000
H          H       0.80302   0.50000   0.72728   0.0000000000
H          H       0.24225   0.50000   0.30718   0.0000000000
H          H       0.75769   0.50000   0.69289   0.0000000000
C          C       0.30426   0.50000   0.29048   0.0000000000
C          C       0.69567   0.50000   0.70959   0.0000000000
H          H       0.30317   0.50000   0.22715   0.0000000000
H          H       0.69677   0.50000   0.77292   0.0000000000
H          H       0.25784   0.50000   0.19276   0.0000000000
H          H       0.74209   0.50000   0.80731   0.0000000000
N          N       0.19821   0.50000   0.17749   0.0000000000
N          N       0.80172   0.50000   0.82258   0.0000000000
N          N       0.30183   0.50000   0.32245   0.0000000000
N          N       0.69810   0.50000   0.67761   0.0000000000
N          N       0.17418   0.50000   0.15803   0.0000000000
N          N       0.82575   0.50000   0.84204   0.0000000000
N          N       0.32585   0.50000   0.34193   0.0000000000
N          N       0.67409   0.50000   0.65814   0.0000000000
H          H       0.15275   0.50000   0.16651   0.0000000000
H          H       0.84719   0.50000   0.83356   0.0000000000
C          C       0.17753   0.50000   0.12608   0.0000000000
C          C       0.82241   0.50000   0.87399   0.0000000000
C          C       0.32247   0.50000   0.37388   0.0000000000
C          C       0.67746   0.50000   0.62619   0.0000000000
O          O       0.20436   0.50000   0.11304   0.0000000000
O          O       0.79557   0.50000   0.88703   0.0000000000
H          H       0.34728   0.50000   0.33347   0.0000000000
H          H       0.65265   0.50000   0.66660   0.0000000000
O          O       0.29563   0.50000   0.38690   0.0000000000
O          O       0.70431   0.50000   0.61317   0.0000000000
H          H       0.32654   0.50000   0.28057   0.0000000000
H          H       0.67339   0.50000   0.71950   0.0000000000
H          H       0.78046   0.50000   0.17360   0.0000000000
H          H       0.17354   0.50000   0.21939   0.0000000000
H          H       0.21948   0.50000   0.82647   0.0000000000
H          H       0.82640   0.50000   0.78068   0.0000000000
