data_crystal

_cell_length_a    28.97450
_cell_length_b    28.97740
_cell_length_c    13.68840
_cell_angle_alpha 90.00000
_cell_angle_beta  90.00000
_cell_angle_gamma 89.85480

_space_group_name_Hall 'P 1'
_space_group_name_H-M_alt  'P 1'

loop_
_symmetry_equiv_pos_as_xyz
'x,y,z' 

loop_
_atom_site_label
_atom_site_type_symbol
_atom_site_fract_x
_atom_site_fract_y
_atom_site_fract_z
N          N       0.04356   0.94032   0.25000 
N          N       0.95644   0.05968   0.25000 
H          H       0.02380   0.96739   0.25000 
H          H       0.97620   0.03261   0.25000 
C          C       0.09014   0.94207   0.25000 
C          C       0.90986   0.05793   0.25000 
C          C       0.02767   0.89654   0.25000 
C          C       0.97233   0.10346   0.25000 
C          C       0.10513   0.89625   0.25000 
C          C       0.89487   0.10375   0.25000 
C          C       0.06674   0.86827   0.25000 
C          C       0.93326   0.13173   0.25000 
H          H       0.13852   0.88479   0.25000 
H          H       0.86148   0.11521   0.25000 
H          H       0.06747   0.83302   0.25000 
H          H       0.93253   0.16698   0.25000 
N          N       0.05863   0.04272   0.25000 
N          N       0.94137   0.95728   0.25000 
C          C       0.10288   0.02734   0.25000 
C          C       0.89712   0.97266   0.25000 
C          C       0.94251   0.91049   0.25000 
C          C       0.05749   0.08951   0.25000 
C          C       0.13122   0.06621   0.25000 
C          C       0.86878   0.93379   0.25000 
C          C       0.89679   0.89542   0.25000 
C          C       0.10321   0.10458   0.25000 
H          H       0.16650   0.06682   0.25000 
H          H       0.83350   0.93318   0.25000 
H          H       0.88543   0.86204   0.25000 
H          H       0.11457   0.13797   0.25000 
C          C       0.11912   0.98125   0.25000 
C          C       0.88088   0.01875   0.25000 
C          C       0.98148   0.88095   0.25000 
C          C       0.01852   0.11905   0.25000 
C          C       0.16731   0.97365   0.25000 
C          C       0.83269   0.02636   0.25000 
C          C       0.97385   0.83280   0.25000 
C          C       0.02615   0.16720   0.25000 
C          C       0.19161   0.96961   0.16095 
C          C       0.80839   0.03039   0.16095 
C          C       0.80839   0.03039   0.33904 
C          C       0.19161   0.96961   0.33904 
C          C       0.96980   0.80853   0.33904 
C          C       0.03020   0.19147   0.33904 
C          C       0.03020   0.19147   0.16095 
C          C       0.96980   0.80853   0.16095 
H          H       0.17449   0.97244   0.09578 
H          H       0.82551   0.02756   0.09578 
H          H       0.82551   0.02756   0.40421 
H          H       0.17449   0.97244   0.40421 
H          H       0.97265   0.82563   0.40421 
H          H       0.02735   0.17437   0.40421 
H          H       0.02735   0.17437   0.09578 
H          H       0.97265   0.82563   0.09578 
C          C       0.23951   0.96142   0.16095 
C          C       0.76049   0.03858   0.16095 
C          C       0.76049   0.03858   0.33904 
C          C       0.23951   0.96142   0.33904 
C          C       0.96157   0.76068   0.33904 
C          C       0.03843   0.23932   0.33904 
C          C       0.03843   0.23932   0.16095 
C          C       0.96157   0.76068   0.16095 
H          H       0.25655   0.95828   0.09573 
H          H       0.74344   0.04172   0.09573 
H          H       0.74344   0.04172   0.40427 
H          H       0.25655   0.95828   0.40427 
H          H       0.95842   0.74366   0.40427 
H          H       0.04158   0.25634   0.40427 
H          H       0.04158   0.25634   0.09573 
H          H       0.95842   0.74366   0.09573 
C          C       0.26386   0.95722   0.25000 
C          C       0.73614   0.04278   0.25000 
C          C       0.95736   0.73636   0.25000 
C          C       0.04264   0.26364   0.25000 
C          C       0.00576   0.53463   0.25000 
C          C       0.99423   0.46537   0.25000 
C          C       0.03409   0.49432   0.25000 
C          C       0.96591   0.50568   0.25000 
C          C       0.01488   0.58425   0.25000 
C          C       0.98512   0.41575   0.25000 
O          O       0.07567   0.48807   0.25000 
O          O       0.92433   0.51193   0.25000 
N          N       0.97958   0.61446   0.25000 
N          N       0.02042   0.38554   0.25000 
N          N       0.98479   0.65898   0.25000 
N          N       0.01521   0.34102   0.25000 
H          H       0.01560   0.67180   0.25000 
H          H       0.98440   0.32820   0.25000 
C          C       0.94887   0.68873   0.25000 
C          C       0.05113   0.31127   0.25000 
O          O       0.90789   0.67516   0.25000 
O          O       0.09211   0.32484   0.25000 
H          H       0.95171   0.40444   0.25000 
H          H       0.04829   0.59556   0.25000 
C          C       0.53467   0.99426   0.25000 
C          C       0.46533   0.00574   0.25000 
C          C       0.49451   0.96591   0.25000 
C          C       0.50549   0.03409   0.25000 
C          C       0.58435   0.98517   0.25000 
C          C       0.41565   0.01483   0.25000 
O          O       0.48850   0.92433   0.25000 
O          O       0.51150   0.07567   0.25000 
N          N       0.61436   0.02048   0.25000 
N          N       0.38564   0.97952   0.25000 
N          N       0.65891   0.01530   0.25000 
N          N       0.34109   0.98470   0.25000 
H          H       0.67190   0.98450   0.25000 
H          H       0.32810   0.01550   0.25000 
C          C       0.68846   0.05124   0.25000 
C          C       0.31154   0.94876   0.25000 
O          O       0.67465   0.09220   0.25000 
O          O       0.32535   0.90780   0.25000 
H          H       0.40415   0.04823   0.25000 
H          H       0.59585   0.95177   0.25000 
N          N       0.04356   0.94032   0.75000 
N          N       0.95644   0.05968   0.75000 
H          H       0.02380   0.96739   0.75000 
H          H       0.97620   0.03261   0.75000 
C          C       0.09014   0.94207   0.75000 
C          C       0.90986   0.05793   0.75000 
C          C       0.02767   0.89654   0.75000 
C          C       0.97233   0.10346   0.75000 
C          C       0.10513   0.89625   0.75000 
C          C       0.89487   0.10375   0.75000 
C          C       0.06674   0.86827   0.75000 
C          C       0.93326   0.13173   0.75000 
H          H       0.13852   0.88479   0.75000 
H          H       0.86148   0.11521   0.75000 
H          H       0.06747   0.83302   0.75000 
H          H       0.93253   0.16698   0.75000 
N          N       0.05863   0.04272   0.75000 
N          N       0.94137   0.95728   0.75000 
C          C       0.10288   0.02734   0.75000 
C          C       0.89712   0.97266   0.75000 
C          C       0.94251   0.91049   0.75000 
C          C       0.05749   0.08951   0.75000 
C          C       0.13122   0.06621   0.75000 
C          C       0.86878   0.93379   0.75000 
C          C       0.89679   0.89542   0.75000 
C          C       0.10321   0.10458   0.75000 
H          H       0.16650   0.06682   0.75000 
H          H       0.83350   0.93318   0.75000 
H          H       0.88543   0.86204   0.75000 
H          H       0.11457   0.13797   0.75000 
C          C       0.11912   0.98125   0.75000 
C          C       0.88088   0.01875   0.75000 
C          C       0.98148   0.88095   0.75000 
C          C       0.01852   0.11905   0.75000 
C          C       0.16731   0.97365   0.75000 
C          C       0.83269   0.02636   0.75000 
C          C       0.97385   0.83280   0.75000 
C          C       0.02615   0.16720   0.75000 
C          C       0.19161   0.96961   0.66095 
C          C       0.80839   0.03039   0.66095 
C          C       0.80839   0.03039   0.83904 
C          C       0.19161   0.96961   0.83904 
C          C       0.96980   0.80853   0.83904 
C          C       0.03020   0.19147   0.83904 
C          C       0.03020   0.19147   0.66095 
C          C       0.96980   0.80853   0.66095 
H          H       0.17449   0.97244   0.59578 
H          H       0.82551   0.02756   0.59578 
H          H       0.82551   0.02756   0.90421 
H          H       0.17449   0.97244   0.90421 
H          H       0.97265   0.82563   0.90421 
H          H       0.02735   0.17437   0.90421 
H          H       0.02735   0.17437   0.59578 
H          H       0.97265   0.82563   0.59578 
C          C       0.23951   0.96142   0.66095 
C          C       0.76049   0.03858   0.66095 
C          C       0.76049   0.03858   0.83904 
C          C       0.23951   0.96142   0.83904 
C          C       0.96157   0.76068   0.83904 
C          C       0.03843   0.23932   0.83904 
C          C       0.03843   0.23932   0.66095 
C          C       0.96157   0.76068   0.66095 
H          H       0.25655   0.95828   0.59572 
H          H       0.74344   0.04172   0.59572 
H          H       0.74344   0.04172   0.90427 
H          H       0.25655   0.95828   0.90427 
H          H       0.95842   0.74366   0.90427 
H          H       0.04158   0.25634   0.90427 
H          H       0.04158   0.25634   0.59572 
H          H       0.95842   0.74366   0.59572 
C          C       0.26386   0.95722   0.75000 
C          C       0.73614   0.04278   0.75000 
C          C       0.95736   0.73636   0.75000 
C          C       0.04264   0.26364   0.75000 
C          C       0.00576   0.53463   0.75000 
C          C       0.99423   0.46537   0.75000 
C          C       0.03409   0.49432   0.75000 
C          C       0.96591   0.50568   0.75000 
C          C       0.01488   0.58425   0.75000 
C          C       0.98512   0.41575   0.75000 
O          O       0.07567   0.48807   0.75000 
O          O       0.92433   0.51193   0.75000 
N          N       0.97958   0.61446   0.75000 
N          N       0.02042   0.38554   0.75000 
N          N       0.98479   0.65898   0.75000 
N          N       0.01521   0.34102   0.75000 
H          H       0.01560   0.67180   0.75000 
H          H       0.98440   0.32820   0.75000 
C          C       0.94887   0.68873   0.75000 
C          C       0.05113   0.31127   0.75000 
O          O       0.90789   0.67516   0.75000 
O          O       0.09211   0.32484   0.75000 
H          H       0.95171   0.40444   0.75000 
H          H       0.04829   0.59556   0.75000 
C          C       0.53467   0.99426   0.75000 
C          C       0.46533   0.00574   0.75000 
C          C       0.49451   0.96591   0.75000 
C          C       0.50549   0.03409   0.75000 
C          C       0.58435   0.98517   0.75000 
C          C       0.41565   0.01483   0.75000 
O          O       0.48850   0.92433   0.75000 
O          O       0.51150   0.07567   0.75000 
N          N       0.61436   0.02048   0.75000 
N          N       0.38564   0.97952   0.75000 
N          N       0.65891   0.01530   0.75000 
N          N       0.34109   0.98470   0.75000 
H          H       0.67190   0.98450   0.75000 
H          H       0.32810   0.01550   0.75000 
C          C       0.68846   0.05124   0.75000 
C          C       0.31154   0.94876   0.75000 
O          O       0.67465   0.09220   0.75000 
O          O       0.32535   0.90780   0.75000 
H          H       0.40415   0.04823   0.75000 
H          H       0.59585   0.95177   0.75000 
