data_crystal
 
_cell_length_a    42.04140
_cell_length_b    41.97310
_cell_length_c    13.60200
_cell_angle_alpha 90.00000
_cell_angle_beta  90.00000
_cell_angle_gamma 90.00160
 
_symmetry_space_group_name_Hall 'P 1'
_symmetry_space_group_name_H-M  'P 1'
 
loop_
_symmetry_equiv_pos_as_xyz
 'x,y,z' 
 
loop_
_atom_site_label
_atom_site_type_symbol
_atom_site_fract_x
_atom_site_fract_y
_atom_site_fract_z
N          N       0.50834   0.44971   0.25000 
N          N       0.49173   0.55023   0.25000 
N          N       0.00834   0.94994   0.25000 
N          N       0.99173   0.04999   0.25000 
H          H       0.50458   0.47251   0.25000 
H          H       0.49549   0.52742   0.25000 
H          H       0.00458   0.97274   0.25000 
H          H       0.99549   0.02719   0.25000 
C          C       0.48496   0.42765   0.25000 
C          C       0.51511   0.57228   0.25000 
C          C       0.98497   0.92777   0.25000 
C          C       0.01510   0.07216   0.25000 
C          C       0.53758   0.43637   0.25000 
C          C       0.46249   0.56356   0.25000 
C          C       0.03757   0.93655   0.25000 
C          C       0.96249   0.06338   0.25000 
C          C       0.50025   0.39813   0.25000 
C          C       0.49982   0.60180   0.25000 
C          C       0.00026   0.89832   0.25000 
C          C       0.99981   0.10161   0.25000 
C          C       0.53259   0.40350   0.25000 
C          C       0.46748   0.59644   0.25000 
C          C       0.03259   0.90368   0.25000 
C          C       0.96748   0.09625   0.25000 
H          H       0.48974   0.37618   0.25000 
H          H       0.51033   0.62375   0.25000 
H          H       0.98976   0.87629   0.25000 
H          H       0.01031   0.12364   0.25000 
H          H       0.54960   0.38610   0.25000 
H          H       0.45047   0.61383   0.25000 
H          H       0.04959   0.88628   0.25000 
H          H       0.95048   0.11365   0.25000 
N          N       0.95061   0.99173   0.25000 
N          N       0.04946   0.00820   0.25000 
N          N       0.45065   0.49178   0.25000 
N          N       0.54941   0.50815   0.25000 
C          C       0.93677   0.96256   0.25000 
C          C       0.06330   0.03737   0.25000 
C          C       0.43682   0.46259   0.25000 
C          C       0.56325   0.53735   0.25000 
C          C       0.07201   0.98505   0.25000 
C          C       0.92806   0.01488   0.25000 
C          C       0.57190   0.48498   0.25000 
C          C       0.42817   0.51495   0.25000 
C          C       0.90392   0.96739   0.25000 
C          C       0.09615   0.03255   0.25000 
C          C       0.40398   0.46743   0.25000 
C          C       0.59609   0.53250   0.25000 
C          C       0.10149   0.00023   0.25000 
C          C       0.89858   0.99971   0.25000 
C          C       0.60143   0.50018   0.25000 
C          C       0.39864   0.49975   0.25000 
H          H       0.88658   0.95033   0.25000 
H          H       0.11349   0.04961   0.25000 
H          H       0.38662   0.45038   0.25000 
H          H       0.61345   0.54955   0.25000 
H          H       0.12347   0.98967   0.25000 
H          H       0.87660   0.01027   0.25000 
H          H       0.62335   0.48963   0.25000 
H          H       0.37672   0.51030   0.25000 
C          C       0.45165   0.43233   0.25000 
C          C       0.54841   0.56760   0.25000 
C          C       0.95166   0.93234   0.25000 
C          C       0.04841   0.06759   0.25000 
C          C       0.56759   0.45155   0.25000 
C          C       0.43248   0.54839   0.25000 
C          C       0.06764   0.95164   0.25000 
C          C       0.93243   0.04830   0.25000 
C          C       0.43207   0.40496   0.25000 
C          C       0.56799   0.59497   0.25000 
C          C       0.93211   0.90495   0.25000 
C          C       0.06796   0.09498   0.25000 
C          C       0.59497   0.43202   0.25000 
C          C       0.40510   0.56792   0.25000 
C          C       0.09499   0.93207   0.25000 
C          C       0.90508   0.06787   0.25000 
C          C       0.92232   0.89107   0.33960 
C          C       0.07775   0.10886   0.33960 
C          C       0.07775   0.10886   0.16040 
C          C       0.92232   0.89107   0.16040 
C          C       0.42227   0.39109   0.33960 
C          C       0.57780   0.60884   0.33960 
C          C       0.57780   0.60884   0.16040 
C          C       0.42227   0.39109   0.16040 
C          C       0.10885   0.92227   0.16040 
C          C       0.89122   0.07767   0.16040 
C          C       0.89122   0.07767   0.33960 
C          C       0.10885   0.92227   0.33960 
C          C       0.60884   0.42223   0.16040 
C          C       0.39123   0.57770   0.16040 
C          C       0.39123   0.57770   0.33960 
C          C       0.60884   0.42223   0.33960 
H          H       0.42921   0.40084   0.40516 
H          H       0.57086   0.59909   0.40516 
H          H       0.57086   0.59909   0.09484 
H          H       0.42921   0.40084   0.09484 
H          H       0.92925   0.90083   0.40516 
H          H       0.07082   0.09911   0.40516 
H          H       0.07082   0.09911   0.09484 
H          H       0.92925   0.90083   0.09484 
H          H       0.59909   0.42916   0.09484 
H          H       0.40098   0.57078   0.09484 
H          H       0.40098   0.57078   0.40516 
H          H       0.59909   0.42916   0.40516 
H          H       0.09911   0.92920   0.09484 
H          H       0.90096   0.07074   0.09484 
H          H       0.90096   0.07074   0.40516 
H          H       0.09911   0.92920   0.40516 
C          C       0.40298   0.36369   0.33959 
C          C       0.59709   0.63625   0.33959 
C          C       0.59709   0.63625   0.16041 
C          C       0.40298   0.36369   0.16041 
C          C       0.90305   0.86364   0.33959 
C          C       0.09701   0.13629   0.33959 
C          C       0.09701   0.13629   0.16041 
C          C       0.90305   0.86364   0.16041 
C          C       0.63626   0.40299   0.16041 
C          C       0.36381   0.59694   0.16041 
C          C       0.36381   0.59694   0.33959 
C          C       0.63626   0.40299   0.33959 
C          C       0.13625   0.90299   0.16041 
C          C       0.86382   0.09694   0.16041 
C          C       0.86382   0.09694   0.33959 
C          C       0.13625   0.90299   0.33959 
H          H       0.39620   0.35383   0.40519 
H          H       0.60387   0.64610   0.40519 
H          H       0.60387   0.64610   0.09481 
H          H       0.39620   0.35383   0.09481 
H          H       0.89629   0.85378   0.40519 
H          H       0.10378   0.14615   0.40519 
H          H       0.10378   0.14615   0.09481 
H          H       0.89629   0.85378   0.09481 
H          H       0.64612   0.39623   0.09481 
H          H       0.35395   0.60371   0.09481 
H          H       0.35395   0.60371   0.40519 
H          H       0.64612   0.39623   0.40519 
H          H       0.14610   0.89622   0.09481 
H          H       0.85397   0.10371   0.09481 
H          H       0.85397   0.10371   0.40519 
H          H       0.14610   0.89622   0.40519 
C          C       0.39315   0.34976   0.25000 
C          C       0.60692   0.65018   0.25000 
C          C       0.89324   0.84971   0.25000 
C          C       0.10683   0.15023   0.25000 
C          C       0.65019   0.39318   0.25000 
C          C       0.34988   0.60675   0.25000 
C          C       0.15018   0.89317   0.25000 
C          C       0.84989   0.10676   0.25000 
C          C       0.22287   0.77057   0.25000 
C          C       0.77720   0.22936   0.25000 
C          C       0.21923   0.73707   0.25000 
C          C       0.78084   0.26287   0.25000 
C          C       0.24593   0.71681   0.25000 
C          C       0.75414   0.28313   0.25000 
C          C       0.27719   0.72935   0.25000 
C          C       0.72288   0.27059   0.25000 
C          C       0.28084   0.76285   0.25000 
C          C       0.71923   0.23708   0.25000 
C          C       0.25414   0.78311   0.25000 
C          C       0.74593   0.21682   0.25000 
C          C       0.19582   0.79043   0.25000 
C          C       0.80424   0.20950   0.25000 
H          H       0.19703   0.72701   0.25000 
H          H       0.80304   0.27293   0.25000 
H          H       0.24235   0.69264   0.25000 
H          H       0.75772   0.30729   0.25000 
C          C       0.30424   0.70948   0.25000 
C          C       0.69583   0.29045   0.25000 
H          H       0.30304   0.77291   0.25000 
H          H       0.69703   0.22702   0.25000 
H          H       0.25773   0.80727   0.25000 
H          H       0.74234   0.19266   0.25000 
N          N       0.19817   0.82247   0.25000 
N          N       0.80190   0.17746   0.25000 
N          N       0.30187   0.67745   0.25000 
N          N       0.69820   0.32248   0.25000 
N          N       0.17415   0.84192   0.25000 
N          N       0.82592   0.15801   0.25000 
N          N       0.32589   0.65800   0.25000 
N          N       0.67418   0.34194   0.25000 
H          H       0.15276   0.83340   0.25000 
H          H       0.84731   0.16653   0.25000 
C          C       0.17745   0.87393   0.25000 
C          C       0.82262   0.12600   0.25000 
C          C       0.32259   0.62599   0.25000 
C          C       0.67748   0.37395   0.25000 
O          O       0.20423   0.88702   0.25000 
O          O       0.79584   0.11291   0.25000 
H          H       0.34727   0.66651   0.25000 
H          H       0.65280   0.33342   0.25000 
O          O       0.29582   0.61288   0.25000 
O          O       0.70425   0.38705   0.25000 
H          H       0.32646   0.71945   0.25000 
H          H       0.67361   0.28048   0.25000 
C          C       0.22934   0.22287   0.25000 
C          C       0.77073   0.77706   0.25000 
C          C       0.26279   0.21916   0.25000 
C          C       0.73728   0.78077   0.25000 
C          C       0.28306   0.24587   0.25000 
C          C       0.71701   0.75406   0.25000 
C          C       0.27060   0.27721   0.25000 
C          C       0.72947   0.72272   0.25000 
C          C       0.23715   0.28091   0.25000 
C          C       0.76292   0.71902   0.25000 
C          C       0.21688   0.25421   0.25000 
C          C       0.78319   0.74573   0.25000 
C          C       0.20947   0.19581   0.25000 
C          C       0.79060   0.80412   0.25000 
H          H       0.27279   0.19691   0.25000 
H          H       0.72728   0.80302   0.25000 
H          H       0.30718   0.24225   0.25000 
H          H       0.69289   0.75769   0.25000 
C          C       0.29048   0.30426   0.25000 
C          C       0.70959   0.69567   0.25000 
H          H       0.22715   0.30317   0.25000 
H          H       0.77292   0.69677   0.25000 
H          H       0.19276   0.25784   0.25000 
H          H       0.80731   0.74209   0.25000 
N          N       0.17749   0.19821   0.25000 
N          N       0.82258   0.80172   0.25000 
N          N       0.32245   0.30183   0.25000 
N          N       0.67761   0.69810   0.25000 
N          N       0.15803   0.17418   0.25000 
N          N       0.84204   0.82575   0.25000 
N          N       0.34193   0.32585   0.25000 
N          N       0.65814   0.67409   0.25000 
H          H       0.16651   0.15275   0.25000 
H          H       0.83356   0.84719   0.25000 
C          C       0.12608   0.17753   0.25000 
C          C       0.87399   0.82241   0.25000 
C          C       0.37388   0.32247   0.25000 
C          C       0.62619   0.67746   0.25000 
O          O       0.11304   0.20436   0.25000 
O          O       0.88703   0.79557   0.25000 
H          H       0.33347   0.34728   0.25000 
H          H       0.66660   0.65265   0.25000 
O          O       0.38690   0.29563   0.25000 
O          O       0.61317   0.70431   0.25000 
H          H       0.28057   0.32654   0.25000 
H          H       0.71950   0.67339   0.25000 
H          H       0.17360   0.78046   0.25000 
H          H       0.21939   0.17354   0.25000 
H          H       0.82647   0.21948   0.25000 
H          H       0.78068   0.82640   0.25000 
N          N       0.50834   0.44971   0.75000 
N          N       0.49173   0.55023   0.75000 
N          N       0.00834   0.94994   0.75000 
N          N       0.99173   0.04999   0.75000 
H          H       0.50458   0.47251   0.75000 
H          H       0.49549   0.52742   0.75000 
H          H       0.00458   0.97274   0.75000 
H          H       0.99549   0.02719   0.75000 
C          C       0.48496   0.42765   0.75000 
C          C       0.51511   0.57228   0.75000 
C          C       0.98497   0.92777   0.75000 
C          C       0.01510   0.07216   0.75000 
C          C       0.53758   0.43637   0.75000 
C          C       0.46249   0.56356   0.75000 
C          C       0.03757   0.93655   0.75000 
C          C       0.96249   0.06338   0.75000 
C          C       0.50025   0.39813   0.75000 
C          C       0.49982   0.60180   0.75000 
C          C       0.00026   0.89832   0.75000 
C          C       0.99981   0.10161   0.75000 
C          C       0.53259   0.40350   0.75000 
C          C       0.46748   0.59644   0.75000 
C          C       0.03259   0.90368   0.75000 
C          C       0.96748   0.09625   0.75000 
H          H       0.48974   0.37618   0.75000 
H          H       0.51033   0.62375   0.75000 
H          H       0.98976   0.87629   0.75000 
H          H       0.01031   0.12364   0.75000 
H          H       0.54960   0.38610   0.75000 
H          H       0.45047   0.61383   0.75000 
H          H       0.04959   0.88628   0.75000 
H          H       0.95048   0.11365   0.75000 
N          N       0.95061   0.99173   0.75000 
N          N       0.04946   0.00820   0.75000 
N          N       0.45065   0.49178   0.75000 
N          N       0.54941   0.50815   0.75000 
C          C       0.93677   0.96256   0.75000 
C          C       0.06330   0.03737   0.75000 
C          C       0.43682   0.46259   0.75000 
C          C       0.56325   0.53735   0.75000 
C          C       0.07201   0.98505   0.75000 
C          C       0.92806   0.01488   0.75000 
C          C       0.57190   0.48498   0.75000 
C          C       0.42817   0.51495   0.75000 
C          C       0.90392   0.96739   0.75000 
C          C       0.09615   0.03255   0.75000 
C          C       0.40398   0.46743   0.75000 
C          C       0.59609   0.53250   0.75000 
C          C       0.10149   0.00023   0.75000 
C          C       0.89858   0.99971   0.75000 
C          C       0.60143   0.50018   0.75000 
C          C       0.39864   0.49975   0.75000 
H          H       0.88658   0.95033   0.75000 
H          H       0.11349   0.04961   0.75000 
H          H       0.38662   0.45038   0.75000 
H          H       0.61345   0.54955   0.75000 
H          H       0.12347   0.98967   0.75000 
H          H       0.87660   0.01027   0.75000 
H          H       0.62335   0.48963   0.75000 
H          H       0.37672   0.51030   0.75000 
C          C       0.45165   0.43233   0.75000 
C          C       0.54841   0.56760   0.75000 
C          C       0.95166   0.93234   0.75000 
C          C       0.04841   0.06759   0.75000 
C          C       0.56759   0.45155   0.75000 
C          C       0.43248   0.54839   0.75000 
C          C       0.06764   0.95164   0.75000 
C          C       0.93243   0.04830   0.75000 
C          C       0.43207   0.40496   0.75000 
C          C       0.56799   0.59497   0.75000 
C          C       0.93211   0.90495   0.75000 
C          C       0.06796   0.09498   0.75000 
C          C       0.59497   0.43202   0.75000 
C          C       0.40510   0.56792   0.75000 
C          C       0.09499   0.93207   0.75000 
C          C       0.90508   0.06787   0.75000 
C          C       0.92232   0.89107   0.83960 
C          C       0.07775   0.10886   0.83960 
C          C       0.07775   0.10886   0.66041 
C          C       0.92232   0.89107   0.66041 
C          C       0.42227   0.39109   0.83960 
C          C       0.57780   0.60884   0.83960 
C          C       0.57780   0.60884   0.66041 
C          C       0.42227   0.39109   0.66041 
C          C       0.10885   0.92227   0.66041 
C          C       0.89122   0.07767   0.66041 
C          C       0.89122   0.07767   0.83960 
C          C       0.10885   0.92227   0.83960 
C          C       0.60884   0.42223   0.66041 
C          C       0.39123   0.57770   0.66041 
C          C       0.39123   0.57770   0.83960 
C          C       0.60884   0.42223   0.83960 
H          H       0.42921   0.40084   0.90516 
H          H       0.57086   0.59909   0.90516 
H          H       0.57086   0.59909   0.59484 
H          H       0.42921   0.40084   0.59484 
H          H       0.92925   0.90083   0.90516 
H          H       0.07082   0.09911   0.90516 
H          H       0.07082   0.09911   0.59484 
H          H       0.92925   0.90083   0.59484 
H          H       0.59909   0.42916   0.59484 
H          H       0.40098   0.57078   0.59484 
H          H       0.40098   0.57078   0.90516 
H          H       0.59909   0.42916   0.90516 
H          H       0.09911   0.92920   0.59484 
H          H       0.90096   0.07074   0.59484 
H          H       0.90096   0.07074   0.90516 
H          H       0.09911   0.92920   0.90516 
C          C       0.40298   0.36369   0.83959 
C          C       0.59709   0.63625   0.83959 
C          C       0.59709   0.63625   0.66041 
C          C       0.40298   0.36369   0.66041 
C          C       0.90305   0.86364   0.83959 
C          C       0.09701   0.13629   0.83959 
C          C       0.09701   0.13629   0.66041 
C          C       0.90305   0.86364   0.66041 
C          C       0.63626   0.40299   0.66041 
C          C       0.36381   0.59694   0.66041 
C          C       0.36381   0.59694   0.83959 
C          C       0.63626   0.40299   0.83959 
C          C       0.13625   0.90299   0.66041 
C          C       0.86382   0.09694   0.66041 
C          C       0.86382   0.09694   0.83959 
C          C       0.13625   0.90299   0.83959 
H          H       0.39620   0.35383   0.90519 
H          H       0.60387   0.64610   0.90519 
H          H       0.60387   0.64610   0.59481 
H          H       0.39620   0.35383   0.59481 
H          H       0.89629   0.85378   0.90519 
H          H       0.10378   0.14615   0.90519 
H          H       0.10378   0.14615   0.59481 
H          H       0.89629   0.85378   0.59481 
H          H       0.64612   0.39623   0.59481 
H          H       0.35395   0.60371   0.59481 
H          H       0.35395   0.60371   0.90519 
H          H       0.64612   0.39623   0.90519 
H          H       0.14610   0.89622   0.59481 
H          H       0.85397   0.10371   0.59481 
H          H       0.85397   0.10371   0.90519 
H          H       0.14610   0.89622   0.90519 
C          C       0.39315   0.34976   0.75000 
C          C       0.60692   0.65018   0.75000 
C          C       0.89324   0.84971   0.75000 
C          C       0.10683   0.15023   0.75000 
C          C       0.65019   0.39318   0.75000 
C          C       0.34988   0.60675   0.75000 
C          C       0.15018   0.89317   0.75000 
C          C       0.84989   0.10676   0.75000 
C          C       0.22287   0.77057   0.75000 
C          C       0.77720   0.22936   0.75000 
C          C       0.21923   0.73707   0.75000 
C          C       0.78084   0.26287   0.75000 
C          C       0.24593   0.71681   0.75000 
C          C       0.75414   0.28313   0.75000 
C          C       0.27719   0.72935   0.75000 
C          C       0.72288   0.27059   0.75000 
C          C       0.28084   0.76285   0.75000 
C          C       0.71923   0.23708   0.75000 
C          C       0.25414   0.78311   0.75000 
C          C       0.74593   0.21682   0.75000 
C          C       0.19582   0.79043   0.75000 
C          C       0.80424   0.20950   0.75000 
H          H       0.19703   0.72701   0.75000 
H          H       0.80304   0.27293   0.75000 
H          H       0.24235   0.69264   0.75000 
H          H       0.75772   0.30729   0.75000 
C          C       0.30424   0.70948   0.75000 
C          C       0.69583   0.29045   0.75000 
H          H       0.30304   0.77291   0.75000 
H          H       0.69703   0.22702   0.75000 
H          H       0.25773   0.80727   0.75000 
H          H       0.74234   0.19266   0.75000 
N          N       0.19817   0.82247   0.75000 
N          N       0.80190   0.17746   0.75000 
N          N       0.30187   0.67745   0.75000 
N          N       0.69820   0.32248   0.75000 
N          N       0.17415   0.84192   0.75000 
N          N       0.82592   0.15801   0.75000 
N          N       0.32589   0.65800   0.75000 
N          N       0.67418   0.34194   0.75000 
H          H       0.15276   0.83340   0.75000 
H          H       0.84731   0.16653   0.75000 
C          C       0.17745   0.87393   0.75000 
C          C       0.82262   0.12600   0.75000 
C          C       0.32259   0.62599   0.75000 
C          C       0.67748   0.37395   0.75000 
O          O       0.20423   0.88702   0.75000 
O          O       0.79584   0.11291   0.75000 
H          H       0.34727   0.66651   0.75000 
H          H       0.65280   0.33342   0.75000 
O          O       0.29582   0.61288   0.75000 
O          O       0.70425   0.38705   0.75000 
H          H       0.32646   0.71945   0.75000 
H          H       0.67361   0.28048   0.75000 
C          C       0.22934   0.22287   0.75000 
C          C       0.77073   0.77706   0.75000 
C          C       0.26279   0.21916   0.75000 
C          C       0.73728   0.78077   0.75000 
C          C       0.28306   0.24587   0.75000 
C          C       0.71701   0.75406   0.75000 
C          C       0.27060   0.27721   0.75000 
C          C       0.72947   0.72272   0.75000 
C          C       0.23715   0.28091   0.75000 
C          C       0.76292   0.71902   0.75000 
C          C       0.21688   0.25421   0.75000 
C          C       0.78319   0.74573   0.75000 
C          C       0.20947   0.19581   0.75000 
C          C       0.79060   0.80412   0.75000 
H          H       0.27279   0.19691   0.75000 
H          H       0.72728   0.80302   0.75000 
H          H       0.30718   0.24225   0.75000 
H          H       0.69289   0.75769   0.75000 
C          C       0.29048   0.30426   0.75000 
C          C       0.70959   0.69567   0.75000 
H          H       0.22715   0.30317   0.75000 
H          H       0.77292   0.69677   0.75000 
H          H       0.19276   0.25784   0.75000 
H          H       0.80731   0.74209   0.75000 
N          N       0.17749   0.19821   0.75000 
N          N       0.82258   0.80172   0.75000 
N          N       0.32245   0.30183   0.75000 
N          N       0.67761   0.69810   0.75000 
N          N       0.15803   0.17418   0.75000 
N          N       0.84204   0.82575   0.75000 
N          N       0.34193   0.32585   0.75000 
N          N       0.65814   0.67409   0.75000 
H          H       0.16651   0.15275   0.75000 
H          H       0.83356   0.84719   0.75000 
C          C       0.12608   0.17753   0.75000 
C          C       0.87399   0.82241   0.75000 
C          C       0.37388   0.32247   0.75000 
C          C       0.62619   0.67746   0.75000 
O          O       0.11304   0.20436   0.75000 
O          O       0.88703   0.79557   0.75000 
H          H       0.33347   0.34728   0.75000 
H          H       0.66660   0.65265   0.75000 
O          O       0.38690   0.29563   0.75000 
O          O       0.61317   0.70431   0.75000 
H          H       0.28057   0.32654   0.75000 
H          H       0.71950   0.67339   0.75000 
H          H       0.17360   0.78046   0.75000 
H          H       0.21939   0.17354   0.75000 
H          H       0.82647   0.21948   0.75000 
H          H       0.78068   0.82640   0.75000 
