data_crystal

_cell_length_a    33.70140
_cell_length_b    33.70140
_cell_length_c    7.16060
_cell_angle_alpha 90.00000
_cell_angle_beta  90.00000
_cell_angle_gamma 120.00000

_space_group_name_Hall 'P 1'
_space_group_name_H-M_alt  'P 1'

loop_
_symmetry_equiv_pos_as_xyz
'x,y,z' 

loop_
_atom_site_label
_atom_site_type_symbol
_atom_site_fract_x
_atom_site_fract_y
_atom_site_fract_z
C          C       0.28772   0.65974   0.25000 
C          C       0.34025   0.62798   0.25000 
C          C       0.37202   0.71228   0.25000 
C          C       0.29475   0.62097   0.25000 
C          C       0.37903   0.67378   0.25000 
C          C       0.32622   0.70525   0.25000 
C          C       0.25531   0.57601   0.25000 
C          C       0.42398   0.67930   0.25000 
C          C       0.32070   0.74469   0.25000 
C          C       0.21109   0.56956   0.25000 
C          C       0.43044   0.64153   0.25000 
C          C       0.35847   0.78891   0.25000 
C          C       0.20438   0.60679   0.25000 
C          C       0.39320   0.59759   0.25000 
C          C       0.40241   0.79562   0.25000 
C          C       0.24168   0.65129   0.25000 
C          C       0.34871   0.59039   0.25000 
C          C       0.40961   0.75832   0.25000 
O          O       0.15934   0.59317   0.25000 
O          O       0.40683   0.56616   0.25000 
O          O       0.43384   0.84066   0.25000 
B          B       0.13667   0.54384   0.25000 
B          B       0.45616   0.59283   0.25000 
B          B       0.40717   0.86333   0.25000 
O          O       0.17071   0.52987   0.25000 
O          O       0.47013   0.64084   0.25000 
O          O       0.35916   0.82929   0.25000 
H          H       0.25685   0.54671   0.25000 
H          H       0.45329   0.71014   0.25000 
H          H       0.28986   0.74314   0.25000 
H          H       0.23335   0.67635   0.25000 
H          H       0.32365   0.55700   0.25000 
H          H       0.44300   0.76665   0.25000 
C          C       0.84457   0.44321   0.25000 
C          C       0.55679   0.40136   0.25000 
C          C       0.59864   0.15543   0.25000 
C          C       0.79656   0.42304   0.25000 
C          C       0.57696   0.37352   0.25000 
C          C       0.62647   0.20344   0.25000 
H          H       0.86442   0.47814   0.25000 
H          H       0.52186   0.38628   0.25000 
H          H       0.61372   0.13558   0.25000 
H          H       0.78520   0.44576   0.25000 
H          H       0.55424   0.33944   0.25000 
H          H       0.66056   0.21480   0.25000 
C          C       0.63184   0.46853   0.25000 
C          C       0.53146   0.16331   0.25000 
C          C       0.83669   0.36816   0.25000 
C          C       0.65159   0.44029   0.25000 
C          C       0.55971   0.21130   0.25000 
C          C       0.78870   0.34841   0.25000 
H          H       0.65287   0.50321   0.25000 
H          H       0.49679   0.14966   0.25000 
H          H       0.85034   0.34713   0.25000 
H          H       0.68631   0.45753   0.25000 
H          H       0.54247   0.22877   0.25000 
H          H       0.77122   0.31369   0.25000 
C          C       0.64592   0.36248   0.25000 
C          C       0.63752   0.28344   0.25000 
C          C       0.71656   0.35408   0.25000 
C          C       0.58394   0.44929   0.25000 
C          C       0.55071   0.13465   0.25000 
C          C       0.86534   0.41605   0.25000 
C          C       0.62538   0.39134   0.25000 
C          C       0.60865   0.23403   0.25000 
C          C       0.76597   0.37462   0.25000 
C          C       0.61977   0.31383   0.25000 
C          C       0.68617   0.30594   0.25000 
C          C       0.69406   0.38023   0.25000 
H          H       0.71394   0.41429   0.25000 
H          H       0.58571   0.29965   0.25000 
H          H       0.70034   0.28606   0.25000 
N          N       0.56163   0.47335   0.25000 
C          C       0.57726   0.51894   0.25000 
H          H       0.61179   0.54130   0.25000 
C          C       0.54707   0.53650   0.25000 
C          C       0.56476   0.58444   0.25000 
C          C       0.53536   0.60286   0.25000 
C          C       0.48744   0.57366   0.25000 
C          C       0.46942   0.52584   0.25000 
C          C       0.49887   0.50755   0.25000 
H          H       0.59938   0.60644   0.25000 
H          H       0.54929   0.63765   0.25000 
H          H       0.43481   0.50387   0.25000 
H          H       0.48467   0.47270   0.25000 
N          N       0.52664   0.08827   0.25000 
C          C       0.48105   0.05831   0.25000 
H          H       0.45869   0.07049   0.25000 
C          C       0.46350   0.01057   0.25000 
C          C       0.41555   0.98031   0.25000 
C          C       0.39714   0.93251   0.25000 
C          C       0.42634   0.91377   0.25000 
C          C       0.47415   0.94358   0.25000 
C          C       0.49245   0.99132   0.25000 
H          H       0.39356   0.99293   0.25000 
H          H       0.36235   0.91164   0.25000 
H          H       0.49613   0.93094   0.25000 
H          H       0.52730   0.01197   0.25000 
N          N       0.91173   0.43837   0.25000 
C          C       0.94169   0.42274   0.25000 
H          H       0.92951   0.38821   0.25000 
C          C       0.98943   0.45293   0.25000 
C          C       0.01969   0.43524   0.25000 
C          C       0.06749   0.46463   0.25000 
C          C       0.08622   0.51256   0.25000 
C          C       0.05642   0.53058   0.25000 
C          C       0.00868   0.50113   0.25000 
H          H       0.00706   0.40062   0.25000 
H          H       0.08836   0.45071   0.25000 
H          H       0.06905   0.56519   0.25000 
H          H       0.98803   0.51533   0.25000 
C          C       0.28772   0.65974   0.75000 
C          C       0.34025   0.62798   0.75000 
C          C       0.37202   0.71228   0.75000 
C          C       0.29475   0.62097   0.75000 
C          C       0.37903   0.67378   0.75000 
C          C       0.32622   0.70525   0.75000 
C          C       0.25531   0.57601   0.75000 
C          C       0.42398   0.67930   0.75000 
C          C       0.32070   0.74469   0.75000 
C          C       0.21109   0.56956   0.75000 
C          C       0.43044   0.64153   0.75000 
C          C       0.35847   0.78891   0.75000 
C          C       0.20438   0.60679   0.75000 
C          C       0.39320   0.59759   0.75000 
C          C       0.40241   0.79562   0.75000 
C          C       0.24168   0.65129   0.75000 
C          C       0.34871   0.59039   0.75000 
C          C       0.40961   0.75832   0.75000 
O          O       0.15934   0.59317   0.75000 
O          O       0.40683   0.56616   0.75000 
O          O       0.43384   0.84066   0.75000 
B          B       0.13667   0.54384   0.75000 
B          B       0.45616   0.59283   0.75000 
B          B       0.40717   0.86333   0.75000 
O          O       0.17071   0.52987   0.75000 
O          O       0.47013   0.64084   0.75000 
O          O       0.35916   0.82929   0.75000 
H          H       0.25685   0.54671   0.75000 
H          H       0.45329   0.71014   0.75000 
H          H       0.28986   0.74314   0.75000 
H          H       0.23335   0.67635   0.75000 
H          H       0.32365   0.55700   0.75000 
H          H       0.44300   0.76665   0.75000 
C          C       0.84457   0.44321   0.75000 
C          C       0.55679   0.40136   0.75000 
C          C       0.59864   0.15543   0.75000 
C          C       0.79656   0.42304   0.75000 
C          C       0.57696   0.37352   0.75000 
C          C       0.62647   0.20344   0.75000 
H          H       0.86442   0.47814   0.75000 
H          H       0.52186   0.38628   0.75000 
H          H       0.61372   0.13558   0.75000 
H          H       0.78520   0.44576   0.75000 
H          H       0.55424   0.33944   0.75000 
H          H       0.66056   0.21480   0.75000 
C          C       0.63184   0.46853   0.75000 
C          C       0.53146   0.16331   0.75000 
C          C       0.83669   0.36816   0.75000 
C          C       0.65159   0.44029   0.75000 
C          C       0.55971   0.21130   0.75000 
C          C       0.78870   0.34841   0.75000 
H          H       0.65287   0.50321   0.75000 
H          H       0.49679   0.14966   0.75000 
H          H       0.85034   0.34713   0.75000 
H          H       0.68631   0.45753   0.75000 
H          H       0.54247   0.22877   0.75000 
H          H       0.77122   0.31369   0.75000 
C          C       0.64592   0.36248   0.75000 
C          C       0.63752   0.28344   0.75000 
C          C       0.71656   0.35408   0.75000 
C          C       0.58394   0.44929   0.75000 
C          C       0.55071   0.13465   0.75000 
C          C       0.86534   0.41605   0.75000 
C          C       0.62538   0.39134   0.75000 
C          C       0.60865   0.23403   0.75000 
C          C       0.76597   0.37462   0.75000 
C          C       0.61977   0.31383   0.75000 
C          C       0.68617   0.30594   0.75000 
C          C       0.69406   0.38023   0.75000 
H          H       0.71394   0.41429   0.75000 
H          H       0.58571   0.29965   0.75000 
H          H       0.70034   0.28606   0.75000 
N          N       0.56163   0.47335   0.75000 
C          C       0.57726   0.51894   0.75000 
H          H       0.61179   0.54130   0.75000 
C          C       0.54707   0.53650   0.75000 
C          C       0.56476   0.58444   0.75000 
C          C       0.53536   0.60286   0.75000 
C          C       0.48744   0.57366   0.75000 
C          C       0.46942   0.52584   0.75000 
C          C       0.49887   0.50755   0.75000 
H          H       0.59938   0.60644   0.75000 
H          H       0.54929   0.63765   0.75000 
H          H       0.43481   0.50387   0.75000 
H          H       0.48467   0.47270   0.75000 
N          N       0.52664   0.08827   0.75000 
C          C       0.48105   0.05831   0.75000 
H          H       0.45869   0.07049   0.75000 
C          C       0.46350   0.01057   0.75000 
C          C       0.41555   0.98031   0.75000 
C          C       0.39714   0.93251   0.75000 
C          C       0.42634   0.91377   0.75000 
C          C       0.47415   0.94358   0.75000 
C          C       0.49245   0.99132   0.75000 
H          H       0.39356   0.99293   0.75000 
H          H       0.36235   0.91164   0.75000 
H          H       0.49613   0.93094   0.75000 
H          H       0.52730   0.01197   0.75000 
N          N       0.91173   0.43837   0.75000 
C          C       0.94169   0.42274   0.75000 
H          H       0.92951   0.38821   0.75000 
C          C       0.98943   0.45293   0.75000 
C          C       0.01969   0.43524   0.75000 
C          C       0.06749   0.46463   0.75000 
C          C       0.08622   0.51256   0.75000 
C          C       0.05642   0.53058   0.75000 
C          C       0.00868   0.50113   0.75000 
H          H       0.00706   0.40062   0.75000 
H          H       0.08836   0.45071   0.75000 
H          H       0.06905   0.56519   0.75000 
H          H       0.98803   0.51533   0.75000 
