data_crystal

_cell_length_a    35.00000
_cell_length_b    35.00000
_cell_length_c    6.88000
_cell_angle_alpha 90.00000
_cell_angle_beta  90.00000
_cell_angle_gamma 120.00000

_space_group_name_Hall 'P 1'
_space_group_name_H-M_alt  'P 1'

loop_
_symmetry_equiv_pos_as_xyz
'x,y,z' 

loop_
_atom_site_label
_atom_site_type_symbol
_atom_site_fract_x
_atom_site_fract_y
_atom_site_fract_z
H          H       0.68877   0.82235   0.00000 
C          C       0.72279   0.82975   0.00000 
N          N       0.75428   0.87048   0.00000 
N          N       0.74473   0.90482   0.00000 
H          H       0.81017   0.95318   0.00000 
C          C       0.77610   0.94560   0.00000 
C          C       0.76630   0.98206   0.00000 
C          C       0.72267   0.97389   0.00000 
H          H       0.69691   0.93995   0.00000 
C          C       0.66587   0.99971   0.00000 
H          H       0.63285   0.92734   0.00000 
C          C       0.62934   0.95614   0.00000 
C          C       0.58599   0.94801   0.00000 
H          H       0.55907   0.91419   0.00000 
C          C       0.57729   0.98282   0.00000 
C          C       0.53115   0.97322   0.00000 
H          H       0.50458   0.93918   0.00000 
N          N       0.47807   0.99528   0.00000 
H          H       0.39296   0.94618   0.00000 
C          C       0.38725   0.97386   0.00000 
C          C       0.34382   0.96551   0.00000 
H          H       0.31870   0.93128   0.00000 
C          C       0.28693   0.99130   0.00000 
H          H       0.25483   0.91939   0.00000 
C          C       0.25051   0.94772   0.00000 
C          C       0.20688   0.93921   0.00000 
C          C       0.19875   0.97379   0.00000 
H          H       0.16515   0.96826   0.00000 
H          H       0.17765   0.86642   0.00000 
C          C       0.17025   0.89304   0.00000 
N          N       0.12952   0.88380   0.00000 
N          N       0.09518   0.83991   0.00000 
H          H       0.04682   0.85699   0.00000 
C          C       0.05440   0.83050   0.00000 
C          C       0.01794   0.78424   0.00000 
C          C       0.02611   0.74878   0.00000 
H          H       0.06005   0.75696   0.00000 
C          C       0.00029   0.66616   0.00000 
H          H       0.07266   0.70551   0.00000 
C          C       0.04386   0.67320   0.00000 
C          C       0.05199   0.63798   0.00000 
H          H       0.08581   0.64488   0.00000 
C          C       0.01718   0.59447   0.00000 
C          C       0.02678   0.55793   0.00000 
H          H       0.06082   0.56540   0.00000 
N          N       0.00472   0.48279   0.00000 
H          H       0.05382   0.44678   0.00000 
C          C       0.02614   0.41339   0.00000 
C          C       0.03449   0.37831   0.00000 
H          H       0.06872   0.38742   0.00000 
C          C       0.00870   0.29563   0.00000 
H          H       0.08061   0.33544   0.00000 
C          C       0.05228   0.30279   0.00000 
C          C       0.06079   0.26767   0.00000 
C          C       0.02621   0.22496   0.00000 
H          H       0.03174   0.19689   0.00000 
H          H       0.13358   0.31123   0.00000 
C          C       0.10696   0.27721   0.00000 
N          N       0.11620   0.24572   0.00000 
N          N       0.16009   0.25527   0.00000 
H          H       0.14301   0.18983   0.00000 
C          C       0.16950   0.22390   0.00000 
C          C       0.21576   0.23370   0.00000 
C          C       0.25122   0.27733   0.00000 
H          H       0.24304   0.30309   0.00000 
C          C       0.33384   0.33413   0.00000 
H          H       0.29449   0.36715   0.00000 
C          C       0.32680   0.37066   0.00000 
C          C       0.36202   0.41401   0.00000 
H          H       0.35512   0.44093   0.00000 
C          C       0.40553   0.42271   0.00000 
C          C       0.44207   0.46885   0.00000 
H          H       0.43460   0.49542   0.00000 
N          N       0.51721   0.52193   0.00000 
H          H       0.55322   0.60704   0.00000 
C          C       0.58661   0.61275   0.00000 
C          C       0.62169   0.65618   0.00000 
H          H       0.61258   0.68130   0.00000 
C          C       0.70437   0.71307   0.00000 
H          H       0.66456   0.74517   0.00000 
C          C       0.69721   0.74949   0.00000 
C          C       0.73233   0.79312   0.00000 
C          C       0.77504   0.80125   0.00000 
H          H       0.80311   0.83485   0.00000 
H          H       0.31123   0.17765   0.00000 
C          C       0.27721   0.17025   0.00000 
N          N       0.24572   0.12952   0.00000 
N          N       0.25527   0.09518   0.00000 
H          H       0.18983   0.04682   0.00000 
C          C       0.22390   0.05440   0.00000 
C          C       0.23370   0.01794   0.00000 
C          C       0.27733   0.02611   0.00000 
H          H       0.30309   0.06005   0.00000 
C          C       0.33413   0.00029   0.00000 
H          H       0.36715   0.07266   0.00000 
C          C       0.37066   0.04386   0.00000 
C          C       0.41401   0.05199   0.00000 
H          H       0.44093   0.08581   0.00000 
C          C       0.42271   0.01718   0.00000 
C          C       0.46885   0.02678   0.00000 
H          H       0.49542   0.06082   0.00000 
N          N       0.52193   0.00472   0.00000 
H          H       0.60704   0.05382   0.00000 
C          C       0.61275   0.02614   0.00000 
C          C       0.65618   0.03449   0.00000 
H          H       0.68130   0.06872   0.00000 
C          C       0.71307   0.00870   0.00000 
H          H       0.74517   0.08061   0.00000 
C          C       0.74949   0.05228   0.00000 
C          C       0.79312   0.06079   0.00000 
C          C       0.80125   0.02621   0.00000 
H          H       0.83485   0.03174   0.00000 
H          H       0.82235   0.13358   0.00000 
C          C       0.82975   0.10696   0.00000 
N          N       0.87048   0.11620   0.00000 
N          N       0.90482   0.16009   0.00000 
H          H       0.95318   0.14301   0.00000 
C          C       0.94560   0.16950   0.00000 
C          C       0.98206   0.21576   0.00000 
C          C       0.97389   0.25122   0.00000 
H          H       0.93995   0.24304   0.00000 
C          C       0.99971   0.33384   0.00000 
H          H       0.92734   0.29449   0.00000 
C          C       0.95614   0.32680   0.00000 
C          C       0.94801   0.36202   0.00000 
H          H       0.91419   0.35512   0.00000 
C          C       0.98282   0.40553   0.00000 
C          C       0.97322   0.44207   0.00000 
H          H       0.93918   0.43460   0.00000 
N          N       0.99528   0.51721   0.00000 
H          H       0.94618   0.55322   0.00000 
C          C       0.97386   0.58661   0.00000 
C          C       0.96551   0.62169   0.00000 
H          H       0.93128   0.61258   0.00000 
C          C       0.99130   0.70437   0.00000 
H          H       0.91939   0.66456   0.00000 
C          C       0.94772   0.69721   0.00000 
C          C       0.93921   0.73233   0.00000 
C          C       0.97379   0.77504   0.00000 
H          H       0.96826   0.80311   0.00000 
H          H       0.86642   0.68877   0.00000 
C          C       0.89304   0.72279   0.00000 
N          N       0.88380   0.75428   0.00000 
N          N       0.83991   0.74473   0.00000 
H          H       0.85699   0.81017   0.00000 
C          C       0.83050   0.77610   0.00000 
C          C       0.78424   0.76630   0.00000 
C          C       0.74878   0.72267   0.00000 
H          H       0.75696   0.69691   0.00000 
C          C       0.66616   0.66587   0.00000 
H          H       0.70551   0.63285   0.00000 
C          C       0.67320   0.62934   0.00000 
C          C       0.63798   0.58599   0.00000 
H          H       0.64488   0.55907   0.00000 
C          C       0.59447   0.57729   0.00000 
C          C       0.55793   0.53115   0.00000 
H          H       0.56540   0.50458   0.00000 
N          N       0.48279   0.47807   0.00000 
H          H       0.44678   0.39296   0.00000 
C          C       0.41339   0.38725   0.00000 
C          C       0.37831   0.34382   0.00000 
H          H       0.38742   0.31870   0.00000 
C          C       0.29563   0.28693   0.00000 
H          H       0.33544   0.25483   0.00000 
C          C       0.30279   0.25051   0.00000 
C          C       0.26767   0.20688   0.00000 
C          C       0.22496   0.19875   0.00000 
H          H       0.19689   0.16515   0.00000 
H          H       0.68877   0.82235   0.50000 
C          C       0.72279   0.82975   0.50000 
N          N       0.75428   0.87048   0.50000 
N          N       0.74473   0.90482   0.50000 
H          H       0.81017   0.95318   0.50000 
C          C       0.77610   0.94560   0.50000 
C          C       0.76630   0.98206   0.50000 
C          C       0.72267   0.97389   0.50000 
H          H       0.69691   0.93995   0.50000 
C          C       0.66587   0.99971   0.50000 
H          H       0.63285   0.92734   0.50000 
C          C       0.62934   0.95614   0.50000 
C          C       0.58599   0.94801   0.50000 
H          H       0.55907   0.91419   0.50000 
C          C       0.57729   0.98282   0.50000 
C          C       0.53115   0.97322   0.50000 
H          H       0.50458   0.93918   0.50000 
N          N       0.47807   0.99528   0.50000 
H          H       0.39296   0.94618   0.50000 
C          C       0.38725   0.97386   0.50000 
C          C       0.34382   0.96551   0.50000 
H          H       0.31870   0.93128   0.50000 
C          C       0.28693   0.99130   0.50000 
H          H       0.25483   0.91939   0.50000 
C          C       0.25051   0.94772   0.50000 
C          C       0.20688   0.93921   0.50000 
C          C       0.19875   0.97379   0.50000 
H          H       0.16515   0.96826   0.50000 
H          H       0.17765   0.86642   0.50000 
C          C       0.17025   0.89304   0.50000 
N          N       0.12952   0.88380   0.50000 
N          N       0.09518   0.83991   0.50000 
H          H       0.04682   0.85699   0.50000 
C          C       0.05440   0.83050   0.50000 
C          C       0.01794   0.78424   0.50000 
C          C       0.02611   0.74878   0.50000 
H          H       0.06005   0.75696   0.50000 
C          C       0.00029   0.66616   0.50000 
H          H       0.07266   0.70551   0.50000 
C          C       0.04386   0.67320   0.50000 
C          C       0.05199   0.63798   0.50000 
H          H       0.08581   0.64488   0.50000 
C          C       0.01718   0.59447   0.50000 
C          C       0.02678   0.55793   0.50000 
H          H       0.06082   0.56540   0.50000 
N          N       0.00472   0.48279   0.50000 
H          H       0.05382   0.44678   0.50000 
C          C       0.02614   0.41339   0.50000 
C          C       0.03449   0.37831   0.50000 
H          H       0.06872   0.38742   0.50000 
C          C       0.00870   0.29563   0.50000 
H          H       0.08061   0.33544   0.50000 
C          C       0.05228   0.30279   0.50000 
C          C       0.06079   0.26767   0.50000 
C          C       0.02621   0.22496   0.50000 
H          H       0.03174   0.19689   0.50000 
H          H       0.13358   0.31123   0.50000 
C          C       0.10696   0.27721   0.50000 
N          N       0.11620   0.24572   0.50000 
N          N       0.16009   0.25527   0.50000 
H          H       0.14301   0.18983   0.50000 
C          C       0.16950   0.22390   0.50000 
C          C       0.21576   0.23370   0.50000 
C          C       0.25122   0.27733   0.50000 
H          H       0.24304   0.30309   0.50000 
C          C       0.33384   0.33413   0.50000 
H          H       0.29449   0.36715   0.50000 
C          C       0.32680   0.37066   0.50000 
C          C       0.36202   0.41401   0.50000 
H          H       0.35512   0.44093   0.50000 
C          C       0.40553   0.42271   0.50000 
C          C       0.44207   0.46885   0.50000 
H          H       0.43460   0.49542   0.50000 
N          N       0.51721   0.52193   0.50000 
H          H       0.55322   0.60704   0.50000 
C          C       0.58661   0.61275   0.50000 
C          C       0.62169   0.65618   0.50000 
H          H       0.61258   0.68130   0.50000 
C          C       0.70437   0.71307   0.50000 
H          H       0.66456   0.74517   0.50000 
C          C       0.69721   0.74949   0.50000 
C          C       0.73233   0.79312   0.50000 
C          C       0.77504   0.80125   0.50000 
H          H       0.80311   0.83485   0.50000 
H          H       0.31123   0.17765   0.50000 
C          C       0.27721   0.17025   0.50000 
N          N       0.24572   0.12952   0.50000 
N          N       0.25527   0.09518   0.50000 
H          H       0.18983   0.04682   0.50000 
C          C       0.22390   0.05440   0.50000 
C          C       0.23370   0.01794   0.50000 
C          C       0.27733   0.02611   0.50000 
H          H       0.30309   0.06005   0.50000 
C          C       0.33413   0.00029   0.50000 
H          H       0.36715   0.07266   0.50000 
C          C       0.37066   0.04386   0.50000 
C          C       0.41401   0.05199   0.50000 
H          H       0.44093   0.08581   0.50000 
C          C       0.42271   0.01718   0.50000 
C          C       0.46885   0.02678   0.50000 
H          H       0.49542   0.06082   0.50000 
N          N       0.52193   0.00472   0.50000 
H          H       0.60704   0.05382   0.50000 
C          C       0.61275   0.02614   0.50000 
C          C       0.65618   0.03449   0.50000 
H          H       0.68130   0.06872   0.50000 
C          C       0.71307   0.00870   0.50000 
H          H       0.74517   0.08061   0.50000 
C          C       0.74949   0.05228   0.50000 
C          C       0.79312   0.06079   0.50000 
C          C       0.80125   0.02621   0.50000 
H          H       0.83485   0.03174   0.50000 
H          H       0.82235   0.13358   0.50000 
C          C       0.82975   0.10696   0.50000 
N          N       0.87048   0.11620   0.50000 
N          N       0.90482   0.16009   0.50000 
H          H       0.95318   0.14301   0.50000 
C          C       0.94560   0.16950   0.50000 
C          C       0.98206   0.21576   0.50000 
C          C       0.97389   0.25122   0.50000 
H          H       0.93995   0.24304   0.50000 
C          C       0.99971   0.33384   0.50000 
H          H       0.92734   0.29449   0.50000 
C          C       0.95614   0.32680   0.50000 
C          C       0.94801   0.36202   0.50000 
H          H       0.91419   0.35512   0.50000 
C          C       0.98282   0.40553   0.50000 
C          C       0.97322   0.44207   0.50000 
H          H       0.93918   0.43460   0.50000 
N          N       0.99528   0.51721   0.50000 
H          H       0.94618   0.55322   0.50000 
C          C       0.97386   0.58661   0.50000 
C          C       0.96551   0.62169   0.50000 
H          H       0.93128   0.61258   0.50000 
C          C       0.99130   0.70437   0.50000 
H          H       0.91939   0.66456   0.50000 
C          C       0.94772   0.69721   0.50000 
C          C       0.93921   0.73233   0.50000 
C          C       0.97379   0.77504   0.50000 
H          H       0.96826   0.80311   0.50000 
H          H       0.86642   0.68877   0.50000 
C          C       0.89304   0.72279   0.50000 
N          N       0.88380   0.75428   0.50000 
N          N       0.83991   0.74473   0.50000 
H          H       0.85699   0.81017   0.50000 
C          C       0.83050   0.77610   0.50000 
C          C       0.78424   0.76630   0.50000 
C          C       0.74878   0.72267   0.50000 
H          H       0.75696   0.69691   0.50000 
C          C       0.66616   0.66587   0.50000 
H          H       0.70551   0.63285   0.50000 
C          C       0.67320   0.62934   0.50000 
C          C       0.63798   0.58599   0.50000 
H          H       0.64488   0.55907   0.50000 
C          C       0.59447   0.57729   0.50000 
C          C       0.55793   0.53115   0.50000 
H          H       0.56540   0.50458   0.50000 
N          N       0.48279   0.47807   0.50000 
H          H       0.44678   0.39296   0.50000 
C          C       0.41339   0.38725   0.50000 
C          C       0.37831   0.34382   0.50000 
H          H       0.38742   0.31870   0.50000 
C          C       0.29563   0.28693   0.50000 
H          H       0.33544   0.25483   0.50000 
C          C       0.30279   0.25051   0.50000 
C          C       0.26767   0.20688   0.50000 
C          C       0.22496   0.19875   0.50000 
H          H       0.19689   0.16515   0.50000 
