data_crystal

_cell_length_a    25.89790
_cell_length_b    25.78820
_cell_length_c    13.48860
_cell_angle_alpha 90.00000
_cell_angle_beta  90.00000
_cell_angle_gamma 100.37860

_space_group_name_Hall 'P 1'
_space_group_name_H-M_alt  'P 1'

loop_
_symmetry_equiv_pos_as_xyz
'x,y,z' 

loop_
_atom_site_label
_atom_site_type_symbol
_atom_site_fract_x
_atom_site_fract_y
_atom_site_fract_z
C          C       0.45017   0.46750   0.25000 
C          C       0.96380   0.95339   0.25000 
C          C       0.54984   0.53250   0.25000 
C          C       0.03621   0.04661   0.25000 
C          C       0.54527   0.47754   0.25000 
C          C       0.98286   0.04909   0.25000 
C          C       0.45473   0.52246   0.25000 
C          C       0.01714   0.95091   0.25000 
C          C       0.50948   0.61329   0.25000 
C          C       0.11308   0.00335   0.25000 
C          C       0.49052   0.38671   0.25000 
C          C       0.88692   0.99665   0.25000 
C          C       0.49562   0.44472   0.25000 
C          C       0.94517   0.00133   0.25000 
C          C       0.50439   0.55527   0.25000 
C          C       0.05484   0.99867   0.25000 
N          N       0.53173   0.36449   0.25000 
N          N       0.86341   0.03690   0.25000 
N          N       0.46827   0.63550   0.25000 
N          N       0.13659   0.96310   0.25000 
N          N       0.55808   0.94233   0.25000 
N          N       0.44192   0.05767   0.25000 
H          H       0.53384   0.96640   0.25000 
H          H       0.46616   0.03360   0.25000 
C          C       0.61026   0.95811   0.25000 
C          C       0.45716   0.11013   0.25000 
C          C       0.38974   0.04189   0.25000 
C          C       0.54284   0.88987   0.25000 
C          C       0.63116   0.91208   0.25000 
C          C       0.41105   0.13064   0.25000 
C          C       0.36884   0.08792   0.25000 
C          C       0.58895   0.86936   0.25000 
H          H       0.67238   0.90951   0.25000 
H          H       0.40809   0.17194   0.25000 
H          H       0.32762   0.09049   0.25000 
H          H       0.59191   0.82806   0.25000 
N          N       0.56693   0.06775   0.25000 
N          N       0.43307   0.93225   0.25000 
C          C       0.62028   0.06209   0.25000 
C          C       0.56078   0.12117   0.25000 
C          C       0.37972   0.93791   0.25000 
C          C       0.43922   0.87883   0.25000 
C          C       0.64927   0.11688   0.25000 
C          C       0.61515   0.15076   0.25000 
C          C       0.35073   0.88312   0.25000 
C          C       0.38485   0.84924   0.25000 
H          H       0.69154   0.12861   0.25000 
H          H       0.62646   0.19324   0.25000 
H          H       0.30846   0.87139   0.25000 
H          H       0.37355   0.80675   0.25000 
C          C       0.64034   0.01554   0.25000 
C          C       0.51416   0.14083   0.25000 
C          C       0.35967   0.98446   0.25000 
C          C       0.48584   0.85917   0.25000 
C          C       0.69796   0.02108   0.25000 
C          C       0.51911   0.19865   0.25000 
C          C       0.30204   0.97892   0.25000 
C          C       0.48089   0.80135   0.25000 
C          C       0.72547   0.02366   0.16009 
C          C       0.52126   0.22623   0.33990 
C          C       0.27453   0.97634   0.16009 
C          C       0.47874   0.77377   0.33990 
C          C       0.27453   0.97634   0.33991 
C          C       0.47874   0.77377   0.16010 
C          C       0.72547   0.02366   0.33991 
C          C       0.52126   0.22623   0.16010 
H          H       0.70446   0.02176   0.09043 
H          H       0.51960   0.20514   0.40956 
H          H       0.29554   0.97824   0.09043 
H          H       0.48040   0.79486   0.40956 
H          H       0.29554   0.97824   0.40957 
H          H       0.48040   0.79486   0.09045 
H          H       0.70446   0.02176   0.40957 
H          H       0.51960   0.20514   0.09045 
C          C       0.78021   0.02887   0.16028 
C          C       0.52556   0.28111   0.33973 
C          C       0.21980   0.97112   0.16028 
C          C       0.47444   0.71889   0.33973 
C          C       0.21980   0.97112   0.33972 
C          C       0.47444   0.71889   0.16026 
C          C       0.78021   0.02887   0.33972 
C          C       0.52556   0.28111   0.16026 
H          H       0.80170   0.03115   0.09126 
H          H       0.52732   0.30257   0.40885 
H          H       0.19831   0.96885   0.09126 
H          H       0.47268   0.69743   0.40885 
H          H       0.19831   0.96885   0.40874 
H          H       0.47268   0.69743   0.09115 
H          H       0.80170   0.03115   0.40874 
H          H       0.52732   0.30257   0.09115 
C          C       0.80755   0.03124   0.25000 
C          C       0.52749   0.30854   0.25000 
C          C       0.19245   0.96875   0.25000 
C          C       0.47251   0.69146   0.25000 
O          O       0.40071   0.43508   0.25000 
H          H       0.58048   0.46047   0.25000 
H          H       0.54854   0.63737   0.25000 
H          H       0.93657   0.91621   0.25000 
O          O       0.97143   0.10003   0.25000 
H          H       0.13687   0.04265   0.25000 
H          H       0.53799   0.03846   0.25000 
H          H       0.37032   0.45503   0.25000 
H          H       0.93323   0.10288   0.25000 
O          O       0.59929   0.56492   0.25000 
H          H       0.41952   0.53953   0.25000 
H          H       0.45147   0.36263   0.25000 
H          H       0.06343   0.08379   0.25000 
O          O       0.02857   0.89997   0.25000 
H          H       0.86313   0.95735   0.25000 
H          H       0.46201   0.96154   0.25000 
H          H       0.62968   0.54497   0.25000 
H          H       0.06677   0.89712   0.25000 
C          C       0.45017   0.46750   0.75000 
C          C       0.96380   0.95339   0.75000 
C          C       0.54984   0.53250   0.75000 
C          C       0.03621   0.04661   0.75000 
C          C       0.54527   0.47754   0.75000 
C          C       0.98286   0.04909   0.75000 
C          C       0.45473   0.52246   0.75000 
C          C       0.01714   0.95091   0.75000 
C          C       0.50948   0.61329   0.75000 
C          C       0.11308   0.00335   0.75000 
C          C       0.49052   0.38671   0.75000 
C          C       0.88692   0.99665   0.75000 
C          C       0.49562   0.44472   0.75000 
C          C       0.94517   0.00133   0.75000 
C          C       0.50439   0.55527   0.75000 
C          C       0.05484   0.99867   0.75000 
N          N       0.53173   0.36449   0.75000 
N          N       0.86341   0.03690   0.75000 
N          N       0.46827   0.63550   0.75000 
N          N       0.13659   0.96310   0.75000 
N          N       0.55808   0.94233   0.75000 
N          N       0.44192   0.05767   0.75000 
H          H       0.53384   0.96640   0.75000 
H          H       0.46616   0.03360   0.75000 
C          C       0.61026   0.95811   0.75000 
C          C       0.45716   0.11013   0.75000 
C          C       0.38974   0.04189   0.75000 
C          C       0.54284   0.88987   0.75000 
C          C       0.63116   0.91208   0.75000 
C          C       0.41105   0.13064   0.75000 
C          C       0.36884   0.08792   0.75000 
C          C       0.58895   0.86936   0.75000 
H          H       0.67238   0.90951   0.75000 
H          H       0.40809   0.17194   0.75000 
H          H       0.32762   0.09049   0.75000 
H          H       0.59191   0.82806   0.75000 
N          N       0.56693   0.06775   0.75000 
N          N       0.43307   0.93225   0.75000 
C          C       0.62028   0.06209   0.75000 
C          C       0.56078   0.12117   0.75000 
C          C       0.37972   0.93791   0.75000 
C          C       0.43922   0.87883   0.75000 
C          C       0.64927   0.11688   0.75000 
C          C       0.61515   0.15076   0.75000 
C          C       0.35073   0.88312   0.75000 
C          C       0.38485   0.84924   0.75000 
H          H       0.69154   0.12861   0.75000 
H          H       0.62646   0.19324   0.75000 
H          H       0.30846   0.87139   0.75000 
H          H       0.37355   0.80675   0.75000 
C          C       0.64034   0.01554   0.75000 
C          C       0.51416   0.14083   0.75000 
C          C       0.35967   0.98446   0.75000 
C          C       0.48584   0.85917   0.75000 
C          C       0.69796   0.02108   0.75000 
C          C       0.51911   0.19865   0.75000 
C          C       0.30204   0.97892   0.75000 
C          C       0.48089   0.80135   0.75000 
C          C       0.72547   0.02366   0.66009 
C          C       0.52126   0.22623   0.83990 
C          C       0.27453   0.97634   0.66009 
C          C       0.47874   0.77377   0.83990 
C          C       0.27453   0.97634   0.83991 
C          C       0.47874   0.77377   0.66010 
C          C       0.72547   0.02366   0.83991 
C          C       0.52126   0.22623   0.66010 
H          H       0.70446   0.02176   0.59043 
H          H       0.51960   0.20514   0.90955 
H          H       0.29554   0.97824   0.59043 
H          H       0.48040   0.79486   0.90955 
H          H       0.29554   0.97824   0.90957 
H          H       0.48040   0.79486   0.59045 
H          H       0.70446   0.02176   0.90957 
H          H       0.51960   0.20514   0.59045 
C          C       0.78021   0.02887   0.66028 
C          C       0.52556   0.28111   0.83973 
C          C       0.21980   0.97112   0.66028 
C          C       0.47444   0.71889   0.83973 
C          C       0.21980   0.97112   0.83972 
C          C       0.47444   0.71889   0.66026 
C          C       0.78021   0.02887   0.83972 
C          C       0.52556   0.28111   0.66026 
H          H       0.80170   0.03115   0.59126 
H          H       0.52732   0.30257   0.90885 
H          H       0.19831   0.96885   0.59126 
H          H       0.47268   0.69743   0.90885 
H          H       0.19831   0.96885   0.90874 
H          H       0.47268   0.69743   0.59115 
H          H       0.80170   0.03115   0.90874 
H          H       0.52732   0.30257   0.59115 
C          C       0.80755   0.03124   0.75000 
C          C       0.52749   0.30854   0.75000 
C          C       0.19245   0.96875   0.75000 
C          C       0.47251   0.69146   0.75000 
O          O       0.40071   0.43508   0.75000 
H          H       0.58048   0.46047   0.75000 
H          H       0.54854   0.63737   0.75000 
H          H       0.93657   0.91621   0.75000 
O          O       0.97143   0.10003   0.75000 
H          H       0.13687   0.04265   0.75000 
H          H       0.53799   0.03846   0.75000 
H          H       0.37032   0.45503   0.75000 
H          H       0.93323   0.10288   0.75000 
O          O       0.59929   0.56492   0.75000 
H          H       0.41952   0.53953   0.75000 
H          H       0.45147   0.36263   0.75000 
H          H       0.06343   0.08379   0.75000 
O          O       0.02857   0.89997   0.75000 
H          H       0.86313   0.95735   0.75000 
H          H       0.46201   0.96154   0.75000 
H          H       0.62968   0.54497   0.75000 
H          H       0.06677   0.89712   0.75000 
