data_crystal
 
_cell_length_a    39.95280
_cell_length_b    32.95940
_cell_length_c    13.49260
_cell_angle_alpha 90.00000
_cell_angle_beta  90.00000
_cell_angle_gamma 90.00000
 
_space_group_name_Hall 'P 1'
_space_group_name_H-M_alt  'P 1'
 
loop_
_symmetry_equiv_pos_as_xyz
 'x,y,z' 
 
loop_
_atom_site_label
_atom_site_type_symbol
_atom_site_fract_x
_atom_site_fract_y
_atom_site_fract_z
C          C       0.24510   0.79160   0.25000 
C          C       0.74510   0.29160   0.25000 
C          C       0.75490   0.20840   0.25000 
C          C       0.25490   0.70840   0.25000 
C          C       0.75490   0.79160   0.25000 
C          C       0.25490   0.29160   0.25000 
C          C       0.24510   0.20840   0.25000 
C          C       0.74510   0.70840   0.25000 
C          C       0.28280   0.73382   0.25000 
C          C       0.78280   0.23382   0.25000 
C          C       0.71720   0.26618   0.25000 
C          C       0.21720   0.76618   0.25000 
C          C       0.71720   0.73382   0.25000 
C          C       0.21720   0.23382   0.25000 
C          C       0.28280   0.26618   0.25000 
C          C       0.78280   0.76618   0.25000 
C          C       0.19509   0.69180   0.25000 
C          C       0.69509   0.19180   0.25000 
C          C       0.80491   0.30820   0.25000 
C          C       0.30491   0.80820   0.25000 
C          C       0.80491   0.69180   0.25000 
C          C       0.30491   0.19180   0.25000 
C          C       0.19509   0.30820   0.25000 
C          C       0.69509   0.80820   0.25000 
C          C       0.27809   0.77673   0.25000 
C          C       0.77809   0.27673   0.25000 
C          C       0.72191   0.22327   0.25000 
C          C       0.22191   0.72327   0.25000 
C          C       0.72191   0.77673   0.25000 
C          C       0.22191   0.27673   0.25000 
C          C       0.27809   0.22327   0.25000 
C          C       0.77809   0.72327   0.25000 
N          N       0.33653   0.79965   0.25000 
N          N       0.83653   0.29965   0.25000 
N          N       0.66347   0.20035   0.25000 
N          N       0.16347   0.70034   0.25000 
N          N       0.66347   0.79965   0.25000 
N          N       0.16347   0.29965   0.25000 
N          N       0.33653   0.20035   0.25000 
N          N       0.83653   0.70034   0.25000 
N          N       0.05752   0.50000   0.25000 
N          N       0.55752  -0.00000   0.25000 
N          N       0.94248   0.50000   0.25000 
N          N       0.44248  -0.00000   0.25000 
H          H       0.03352   0.50000   0.25000 
H          H       0.96648   0.50000   0.25000 
H          H       0.46648  -0.00000   0.25000 
C          C       0.07581   0.46595   0.25000 
C          C       0.57581   0.96595   0.25000 
C          C       0.92419   0.53405   0.25000 
C          C       0.42419   0.03405   0.25000 
C          C       0.92419   0.46595   0.25000 
C          C       0.42419   0.96595   0.25000 
C          C       0.07581   0.53405   0.25000 
C          C       0.57581   0.03405   0.25000 
C          C       0.10899   0.47868   0.25000 
C          C       0.60899   0.97868   0.25000 
C          C       0.89101   0.52132   0.25000 
C          C       0.39101   0.02132   0.25000 
C          C       0.89101   0.47868   0.25000 
C          C       0.39101   0.97868   0.25000 
C          C       0.10899   0.52132   0.25000 
C          C       0.60899   0.02132   0.25000 
H          H       0.13086   0.45935   0.25000 
H          H       0.63086   0.95935   0.25000 
H          H       0.86914   0.54065   0.25000 
H          H       0.36914   0.04065   0.25000 
H          H       0.86914   0.45935   0.25000 
H          H       0.36914   0.95935   0.25000 
H          H       0.13086   0.54065   0.25000 
H          H       0.63086   0.04065   0.25000 
N          N       0.50000   0.93239   0.25000 
N          N       0.00000   0.43240   0.25000 
N          N       0.50000   0.06760   0.25000 
N          N       0.00000   0.56760   0.25000 
C          C       0.52946   0.90856   0.25000 
C          C       0.02946   0.40856   0.25000 
C          C       0.47054   0.09144   0.25000 
C          C       0.97054   0.59144   0.25000 
C          C       0.47054   0.90856   0.25000 
C          C       0.97054   0.40856   0.25000 
C          C       0.52946   0.09144   0.25000 
C          C       0.02946   0.59144   0.25000 
C          C       0.51690   0.86645   0.25000 
C          C       0.01690   0.36645   0.25000 
C          C       0.48310   0.13355   0.25000 
C          C       0.98310   0.63355   0.25000 
C          C       0.48310   0.86645   0.25000 
C          C       0.98310   0.36645   0.25000 
C          C       0.51690   0.13355   0.25000 
C          C       0.01690   0.63355   0.25000 
H          H       0.53223   0.83939   0.25000 
H          H       0.03223   0.33940   0.25000 
H          H       0.46777   0.16060   0.25000 
H          H       0.96777   0.66060   0.25000 
H          H       0.46777   0.83939   0.25000 
H          H       0.96777   0.33940   0.25000 
H          H       0.53223   0.16060   0.25000 
H          H       0.03223   0.66060   0.25000 
C          C       0.06248   0.42197   0.25000 
C          C       0.56248   0.92197   0.25000 
C          C       0.93752   0.57803   0.25000 
C          C       0.43752   0.07803   0.25000 
C          C       0.93752   0.42197   0.25000 
C          C       0.43752   0.92197   0.25000 
C          C       0.06248   0.57803   0.25000 
C          C       0.56248   0.07803   0.25000 
C          C       0.08855   0.39035   0.25000 
C          C       0.58855   0.89035   0.25000 
C          C       0.91145   0.60965   0.25000 
C          C       0.41145   0.10965   0.25000 
C          C       0.91145   0.39035   0.25000 
C          C       0.41145   0.89035   0.25000 
C          C       0.08855   0.60965   0.25000 
C          C       0.58855   0.10965   0.25000 
C          C       0.60102   0.87529   0.33988 
C          C       0.10102   0.37529   0.33988 
C          C       0.39898   0.12471   0.33988 
C          C       0.89898   0.62471   0.33988 
C          C       0.39898   0.87529   0.16012 
C          C       0.89898   0.37529   0.16012 
C          C       0.60102   0.12471   0.16012 
C          C       0.10102   0.62471   0.16012 
C          C       0.39898   0.12471   0.16012 
C          C       0.89898   0.62471   0.16012 
C          C       0.60102   0.87529   0.16012 
C          C       0.10102   0.37529   0.16012 
C          C       0.60102   0.12471   0.33988 
C          C       0.10102   0.62471   0.33988 
C          C       0.39898   0.87529   0.33988 
C          C       0.89898   0.37529   0.33988 
H          H       0.09145   0.38675   0.40952 
H          H       0.59145   0.88675   0.40952 
H          H       0.90855   0.61325   0.40952 
H          H       0.40855   0.11325   0.40952 
H          H       0.90855   0.38675   0.09047 
H          H       0.40855   0.88675   0.09047 
H          H       0.09145   0.61325   0.09047 
H          H       0.59145   0.11325   0.09047 
H          H       0.90855   0.61325   0.09047 
H          H       0.40855   0.11325   0.09047 
H          H       0.09145   0.38675   0.09047 
H          H       0.59145   0.88675   0.09047 
H          H       0.09145   0.61325   0.40952 
H          H       0.59145   0.11325   0.40952 
H          H       0.90855   0.38675   0.40952 
H          H       0.40855   0.88675   0.40952 
C          C       0.12581   0.34529   0.33970 
C          C       0.62581   0.84529   0.33970 
C          C       0.87419   0.65471   0.33970 
C          C       0.37419   0.15471   0.33970 
C          C       0.87419   0.34529   0.16031 
C          C       0.37419   0.84529   0.16031 
C          C       0.12581   0.65471   0.16031 
C          C       0.62581   0.15471   0.16031 
C          C       0.87419   0.65471   0.16031 
C          C       0.37419   0.15471   0.16031 
C          C       0.12581   0.34529   0.16031 
C          C       0.62581   0.84529   0.16031 
C          C       0.12581   0.65471   0.33970 
C          C       0.62581   0.15471   0.33970 
C          C       0.87419   0.34529   0.33970 
C          C       0.37419   0.84529   0.33970 
H          H       0.13543   0.33339   0.40869 
H          H       0.63543   0.83339   0.40869 
H          H       0.86457   0.66661   0.40869 
H          H       0.36457   0.16661   0.40869 
H          H       0.86457   0.33339   0.09130 
H          H       0.36457   0.83339   0.09130 
H          H       0.13543   0.66661   0.09130 
H          H       0.63543   0.16661   0.09130 
H          H       0.86457   0.66661   0.09130 
H          H       0.36457   0.16661   0.09130 
H          H       0.13543   0.33339   0.09130 
H          H       0.63543   0.83339   0.09130 
H          H       0.13543   0.66661   0.40869 
H          H       0.63543   0.16661   0.40869 
H          H       0.86457   0.33339   0.40869 
H          H       0.36457   0.83339   0.40869 
C          C       0.13832   0.33042   0.25000 
C          C       0.63832   0.83042   0.25000 
C          C       0.86168   0.66958   0.25000 
C          C       0.36168   0.16958   0.25000 
C          C       0.86168   0.33042   0.25000 
C          C       0.36168   0.83042   0.25000 
C          C       0.13832   0.66958   0.25000 
C          C       0.63832   0.16958   0.25000 
H          H       0.24037   0.82395   0.25000 
O          O       0.31366   0.71384   0.25000 
H          H       0.20259   0.66009   0.25000 
H          H       0.33418   0.73149   0.25000 
H          H       0.74037   0.32395   0.25000 
O          O       0.81366   0.21384   0.25000 
H          H       0.70259   0.16009   0.25000 
H          H       0.83418   0.23149   0.25000 
H          H       0.75963   0.17605   0.25000 
O          O       0.68634   0.28616   0.25000 
H          H       0.79741   0.33991   0.25000 
H          H       0.66582   0.26851   0.25000 
H          H       0.25963   0.67605   0.25000 
O          O       0.18634   0.78616   0.25000 
H          H       0.29741   0.83991   0.25000 
H          H       0.16582   0.76851   0.25000 
H          H       0.75963   0.82395   0.25000 
O          O       0.68634   0.71384   0.25000 
H          H       0.79741   0.66009   0.25000 
H          H       0.66582   0.73149   0.25000 
H          H       0.25963   0.32395   0.25000 
O          O       0.18634   0.21384   0.25000 
H          H       0.29741   0.16009   0.25000 
H          H       0.16582   0.23149   0.25000 
H          H       0.24037   0.17605   0.25000 
O          O       0.31366   0.28616   0.25000 
H          H       0.20259   0.33991   0.25000 
H          H       0.33418   0.26851   0.25000 
H          H       0.74037   0.67605   0.25000 
O          O       0.81366   0.78616   0.25000 
H          H       0.70259   0.83991   0.25000 
H          H       0.83418   0.76851   0.25000 
H          H       0.53291   0.00160   0.25000 
C          C       0.24510   0.79160   0.75000 
C          C       0.74510   0.29160   0.75000 
C          C       0.75490   0.20840   0.75000 
C          C       0.25490   0.70840   0.75000 
C          C       0.75490   0.79160   0.75000 
C          C       0.25490   0.29160   0.75000 
C          C       0.24510   0.20840   0.75000 
C          C       0.74510   0.70840   0.75000 
C          C       0.28280   0.73382   0.75000 
C          C       0.78280   0.23382   0.75000 
C          C       0.71720   0.26618   0.75000 
C          C       0.21720   0.76618   0.75000 
C          C       0.71720   0.73382   0.75000 
C          C       0.21720   0.23382   0.75000 
C          C       0.28280   0.26618   0.75000 
C          C       0.78280   0.76618   0.75000 
C          C       0.19509   0.69180   0.75000 
C          C       0.69509   0.19180   0.75000 
C          C       0.80491   0.30820   0.75000 
C          C       0.30491   0.80820   0.75000 
C          C       0.80491   0.69180   0.75000 
C          C       0.30491   0.19180   0.75000 
C          C       0.19509   0.30820   0.75000 
C          C       0.69509   0.80820   0.75000 
C          C       0.27809   0.77673   0.75000 
C          C       0.77809   0.27673   0.75000 
C          C       0.72191   0.22327   0.75000 
C          C       0.22191   0.72327   0.75000 
C          C       0.72191   0.77673   0.75000 
C          C       0.22191   0.27673   0.75000 
C          C       0.27809   0.22327   0.75000 
C          C       0.77809   0.72327   0.75000 
N          N       0.33653   0.79965   0.75000 
N          N       0.83653   0.29965   0.75000 
N          N       0.66347   0.20035   0.75000 
N          N       0.16347   0.70034   0.75000 
N          N       0.66347   0.79965   0.75000 
N          N       0.16347   0.29965   0.75000 
N          N       0.33653   0.20035   0.75000 
N          N       0.83653   0.70034   0.75000 
N          N       0.05752   0.50000   0.75000 
N          N       0.55752  -0.00000   0.75000 
N          N       0.94248   0.50000   0.75000 
N          N       0.44248  -0.00000   0.75000 
H          H       0.03352   0.50000   0.75000 
H          H       0.96648   0.50000   0.75000 
H          H       0.46648  -0.00000   0.75000 
C          C       0.07581   0.46595   0.75000 
C          C       0.57581   0.96595   0.75000 
C          C       0.92419   0.53405   0.75000 
C          C       0.42419   0.03405   0.75000 
C          C       0.92419   0.46595   0.75000 
C          C       0.42419   0.96595   0.75000 
C          C       0.07581   0.53405   0.75000 
C          C       0.57581   0.03405   0.75000 
C          C       0.10899   0.47868   0.75000 
C          C       0.60899   0.97868   0.75000 
C          C       0.89101   0.52132   0.75000 
C          C       0.39101   0.02132   0.75000 
C          C       0.89101   0.47868   0.75000 
C          C       0.39101   0.97868   0.75000 
C          C       0.10899   0.52132   0.75000 
C          C       0.60899   0.02132   0.75000 
H          H       0.13086   0.45935   0.75000 
H          H       0.63086   0.95935   0.75000 
H          H       0.86914   0.54065   0.75000 
H          H       0.36914   0.04065   0.75000 
H          H       0.86914   0.45935   0.75000 
H          H       0.36914   0.95935   0.75000 
H          H       0.13086   0.54065   0.75000 
H          H       0.63086   0.04065   0.75000 
N          N       0.50000   0.93239   0.75000 
N          N       0.00000   0.43240   0.75000 
N          N       0.50000   0.06760   0.75000 
N          N       0.00000   0.56760   0.75000 
C          C       0.52946   0.90856   0.75000 
C          C       0.02946   0.40856   0.75000 
C          C       0.47054   0.09144   0.75000 
C          C       0.97054   0.59144   0.75000 
C          C       0.47054   0.90856   0.75000 
C          C       0.97054   0.40856   0.75000 
C          C       0.52946   0.09144   0.75000 
C          C       0.02946   0.59144   0.75000 
C          C       0.51690   0.86645   0.75000 
C          C       0.01690   0.36645   0.75000 
C          C       0.48310   0.13355   0.75000 
C          C       0.98310   0.63355   0.75000 
C          C       0.48310   0.86645   0.75000 
C          C       0.98310   0.36645   0.75000 
C          C       0.51690   0.13355   0.75000 
C          C       0.01690   0.63355   0.75000 
H          H       0.53223   0.83939   0.75000 
H          H       0.03223   0.33940   0.75000 
H          H       0.46777   0.16060   0.75000 
H          H       0.96777   0.66060   0.75000 
H          H       0.46777   0.83939   0.75000 
H          H       0.96777   0.33940   0.75000 
H          H       0.53223   0.16060   0.75000 
H          H       0.03223   0.66060   0.75000 
C          C       0.06248   0.42197   0.75000 
C          C       0.56248   0.92197   0.75000 
C          C       0.93752   0.57803   0.75000 
C          C       0.43752   0.07803   0.75000 
C          C       0.93752   0.42197   0.75000 
C          C       0.43752   0.92197   0.75000 
C          C       0.06248   0.57803   0.75000 
C          C       0.56248   0.07803   0.75000 
C          C       0.08855   0.39035   0.75000 
C          C       0.58855   0.89035   0.75000 
C          C       0.91145   0.60965   0.75000 
C          C       0.41145   0.10965   0.75000 
C          C       0.91145   0.39035   0.75000 
C          C       0.41145   0.89035   0.75000 
C          C       0.08855   0.60965   0.75000 
C          C       0.58855   0.10965   0.75000 
C          C       0.60102   0.87529   0.83988 
C          C       0.10102   0.37529   0.83988 
C          C       0.39898   0.12471   0.83988 
C          C       0.89898   0.62471   0.83988 
C          C       0.39898   0.87529   0.66012 
C          C       0.89898   0.37529   0.66012 
C          C       0.60102   0.12471   0.66012 
C          C       0.10102   0.62471   0.66012 
C          C       0.39898   0.12471   0.66012 
C          C       0.89898   0.62471   0.66012 
C          C       0.60102   0.87529   0.66012 
C          C       0.10102   0.37529   0.66012 
C          C       0.60102   0.12471   0.83988 
C          C       0.10102   0.62471   0.83988 
C          C       0.39898   0.87529   0.83988 
C          C       0.89898   0.37529   0.83988 
H          H       0.09145   0.38675   0.90952 
H          H       0.59145   0.88675   0.90952 
H          H       0.90855   0.61325   0.90952 
H          H       0.40855   0.11325   0.90952 
H          H       0.90855   0.38675   0.59048 
H          H       0.40855   0.88675   0.59048 
H          H       0.09145   0.61325   0.59048 
H          H       0.59145   0.11325   0.59048 
H          H       0.90855   0.61325   0.59048 
H          H       0.40855   0.11325   0.59048 
H          H       0.09145   0.38675   0.59048 
H          H       0.59145   0.88675   0.59048 
H          H       0.09145   0.61325   0.90952 
H          H       0.59145   0.11325   0.90952 
H          H       0.90855   0.38675   0.90952 
H          H       0.40855   0.88675   0.90952 
C          C       0.12581   0.34529   0.83970 
C          C       0.62581   0.84529   0.83970 
C          C       0.87419   0.65471   0.83970 
C          C       0.37419   0.15471   0.83970 
C          C       0.87419   0.34529   0.66031 
C          C       0.37419   0.84529   0.66031 
C          C       0.12581   0.65471   0.66031 
C          C       0.62581   0.15471   0.66031 
C          C       0.87419   0.65471   0.66031 
C          C       0.37419   0.15471   0.66031 
C          C       0.12581   0.34529   0.66031 
C          C       0.62581   0.84529   0.66031 
C          C       0.12581   0.65471   0.83970 
C          C       0.62581   0.15471   0.83970 
C          C       0.87419   0.34529   0.83970 
C          C       0.37419   0.84529   0.83970 
H          H       0.13543   0.33339   0.90869 
H          H       0.63543   0.83339   0.90869 
H          H       0.86457   0.66661   0.90869 
H          H       0.36457   0.16661   0.90869 
H          H       0.86457   0.33339   0.59130 
H          H       0.36457   0.83339   0.59130 
H          H       0.13543   0.66661   0.59130 
H          H       0.63543   0.16661   0.59130 
H          H       0.86457   0.66661   0.59130 
H          H       0.36457   0.16661   0.59130 
H          H       0.13543   0.33339   0.59130 
H          H       0.63543   0.83339   0.59130 
H          H       0.13543   0.66661   0.90869 
H          H       0.63543   0.16661   0.90869 
H          H       0.86457   0.33339   0.90869 
H          H       0.36457   0.83339   0.90869 
C          C       0.13832   0.33042   0.75000 
C          C       0.63832   0.83042   0.75000 
C          C       0.86168   0.66958   0.75000 
C          C       0.36168   0.16958   0.75000 
C          C       0.86168   0.33042   0.75000 
C          C       0.36168   0.83042   0.75000 
C          C       0.13832   0.66958   0.75000 
C          C       0.63832   0.16958   0.75000 
H          H       0.24037   0.82395   0.75000 
O          O       0.31366   0.71384   0.75000 
H          H       0.20259   0.66009   0.75000 
H          H       0.33418   0.73149   0.75000 
H          H       0.74037   0.32395   0.75000 
O          O       0.81366   0.21384   0.75000 
H          H       0.70259   0.16009   0.75000 
H          H       0.83418   0.23149   0.75000 
H          H       0.75963   0.17605   0.75000 
O          O       0.68634   0.28616   0.75000 
H          H       0.79741   0.33991   0.75000 
H          H       0.66582   0.26851   0.75000 
H          H       0.25963   0.67605   0.75000 
O          O       0.18634   0.78616   0.75000 
H          H       0.29741   0.83991   0.75000 
H          H       0.16582   0.76851   0.75000 
H          H       0.75963   0.82395   0.75000 
O          O       0.68634   0.71384   0.75000 
H          H       0.79741   0.66009   0.75000 
H          H       0.66582   0.73149   0.75000 
H          H       0.25963   0.32395   0.75000 
O          O       0.18634   0.21384   0.75000 
H          H       0.29741   0.16009   0.75000 
H          H       0.16582   0.23149   0.75000 
H          H       0.24037   0.17605   0.75000 
O          O       0.31366   0.28616   0.75000 
H          H       0.20259   0.33991   0.75000 
H          H       0.33418   0.26851   0.75000 
H          H       0.74037   0.67605   0.75000 
O          O       0.81366   0.78616   0.75000 
H          H       0.70259   0.83991   0.75000 
H          H       0.83418   0.76851   0.75000 
H          H       0.53291   0.00160   0.75000 
