data_crystal
 
_cell_length_a    25.47920
_cell_length_b    25.53530
_cell_length_c    13.54780
_cell_angle_alpha 90.00000
_cell_angle_beta  90.00000
_cell_angle_gamma 90.43670
 
_symmetry_space_group_name_Hall 'P 1'
_symmetry_space_group_name_H-M  'P 1'
 
loop_
_symmetry_equiv_pos_as_xyz
 'x,y,z' 
 
loop_
_atom_site_label
_atom_site_type_symbol
_atom_site_fract_x
_atom_site_fract_y
_atom_site_fract_z
C          C       0.50338   0.55633   0.25000 
C          C       0.49660   0.44369   0.25000 
C          C       0.94413   0.00603   0.25000 
C          C       0.05586   0.99399   0.25000 
O          O       0.50973   0.61140   0.25000 
H          H       0.54710   0.62678   0.25000 
O          O       0.49026   0.38862   0.25000 
H          H       0.45288   0.37324   0.25000 
O          O       0.88927   0.01290   0.25000 
H          H       0.87456   0.05020   0.25000 
O          O       0.11072   0.98712   0.25000 
H          H       0.12542   0.94982   0.25000 
C          C       0.54897   0.52490   0.25000 
C          C       0.45102   0.47512   0.25000 
C          C       0.97798   0.05020   0.25000 
C          C       0.02201   0.94981   0.25000 
C          C       0.54598   0.46995   0.25000 
C          C       0.45400   0.53007   0.25000 
C          C       0.03287   0.04427   0.25000 
C          C       0.96711   0.95575   0.25000 
H          H       0.58561   0.54156   0.25000 
H          H       0.41437   0.45846   0.25000 
H          H       0.96300   0.08731   0.25000 
H          H       0.03698   0.91271   0.25000 
C          C       0.61516   0.04015   0.25000 
C          C       0.38482   0.95987   0.25000 
C          C       0.55850   0.10692   0.25000 
C          C       0.44149   0.89310   0.25000 
C          C       0.64410   0.08678   0.25000 
C          C       0.35589   0.91324   0.25000 
C          C       0.60928   0.12781   0.25000 
C          C       0.39071   0.87221   0.25000 
H          H       0.68404   0.09062   0.25000 
H          H       0.31595   0.90940   0.25000 
H          H       0.61959   0.16656   0.25000 
H          H       0.38039   0.83346   0.25000 
N          N       0.55317   0.93735   0.25000 
N          N       0.44682   0.06267   0.25000 
C          C       0.60618   0.94263   0.25000 
C          C       0.39381   0.05739   0.25000 
C          C       0.46073   0.11405   0.25000 
C          C       0.53925   0.88597   0.25000 
C          C       0.62694   0.89221   0.25000 
C          C       0.37305   0.10781   0.25000 
C          C       0.41435   0.14278   0.25000 
C          C       0.58564   0.85724   0.25000 
H          H       0.66571   0.88223   0.25000 
H          H       0.33427   0.11779   0.25000 
H          H       0.41085   0.18263   0.25000 
H          H       0.58913   0.81739   0.25000 
C          C       0.63658   0.98924   0.25000 
C          C       0.36341   0.01078   0.25000 
C          C       0.51173   0.13636   0.25000 
C          C       0.48825   0.86365   0.25000 
C          C       0.69184   0.98483   0.25000 
C          C       0.30815   0.01519   0.25000 
C          C       0.51645   0.19154   0.25000 
C          C       0.48354   0.80847   0.25000 
C          C       0.71974   0.98256   0.34002 
C          C       0.28025   0.01746   0.34002 
C          C       0.28025   0.01746   0.15998 
C          C       0.71974   0.98256   0.15998 
C          C       0.51891   0.21940   0.15996 
C          C       0.48108   0.78062   0.15996 
C          C       0.48108   0.78062   0.34003 
C          C       0.51891   0.21940   0.34003 
H          H       0.70011   0.98404   0.40586 
H          H       0.29987   0.01597   0.40586 
H          H       0.29987   0.01597   0.09413 
H          H       0.70011   0.98404   0.09413 
H          H       0.51728   0.19982   0.09411 
H          H       0.48271   0.80020   0.09411 
H          H       0.48271   0.80020   0.40588 
H          H       0.51728   0.19982   0.40588 
C          C       0.77481   0.97818   0.33982 
C          C       0.22517   0.02183   0.33982 
C          C       0.22517   0.02183   0.16018 
C          C       0.77481   0.97818   0.16018 
C          C       0.52372   0.27439   0.16018 
C          C       0.47626   0.72563   0.16018 
C          C       0.47626   0.72563   0.33981 
C          C       0.52372   0.27439   0.33981 
H          H       0.79490   0.97641   0.40497 
H          H       0.20509   0.02360   0.40497 
H          H       0.20509   0.02360   0.09503 
H          H       0.79490   0.97641   0.09503 
H          H       0.52567   0.29452   0.09511 
H          H       0.47432   0.70550   0.09511 
H          H       0.47432   0.70550   0.40488 
H          H       0.52567   0.29452   0.40488 
C          C       0.80251   0.97619   0.25000 
C          C       0.19747   0.02382   0.25000 
C          C       0.52595   0.30202   0.25000 
C          C       0.47404   0.69800   0.25000 
O          O       0.59257   0.44508   0.25000 
O          O       0.40741   0.55494   0.25000 
H          H       0.05605   0.07720   0.25000 
H          H       0.94394   0.92282   0.25000 
C          C       0.35854   0.52112   0.25000 
C          C       0.30823   0.55096   0.25000 
C          C       0.25844   0.51642   0.25000 
C          C       0.20582   0.54563   0.25494 
O          O       0.36030   0.46203   0.25098 
H          H       0.30314   0.58450   0.19511 
H          H       0.31485   0.56759   0.32702 
H          H       0.26348   0.48282   0.30469 
H          H       0.25180   0.49989   0.17285 
O          O       0.20530   0.60464   0.26206 
O          O       0.15478   0.51518   0.25531 
H          H       0.16405   0.61835   0.26483 
C          C       0.64144   0.47890   0.25000 
C          C       0.69175   0.44906   0.25000 
C          C       0.74155   0.48360   0.25000 
C          C       0.79416   0.45439   0.25494 
O          O       0.63969   0.53799   0.25098 
H          H       0.69685   0.41551   0.19511 
H          H       0.68513   0.43243   0.32702 
H          H       0.73650   0.51720   0.30469 
H          H       0.74819   0.50012   0.17285 
O          O       0.79468   0.39538   0.26206 
O          O       0.84520   0.48483   0.25531 
H          H       0.83593   0.38167   0.26483 
B          B       0.53073   0.35464   0.25000 
B          B       0.46925   0.64538   0.25000 
B          B       0.14475   0.02805   0.25000 
B          B       0.85523   0.97197   0.25000 
N          N       0.56422   0.05438   0.25000 
N          N       0.43576   0.94564   0.25000 
H          H       0.53508   0.02970   0.25000 
H          H       0.46490   0.97031   0.25000 
C          C       0.50338   0.55633   0.75000 
C          C       0.49660   0.44369   0.75000 
C          C       0.94413   0.00603   0.75000 
C          C       0.05586   0.99399   0.75000 
O          O       0.50973   0.61140   0.75000 
H          H       0.54710   0.62678   0.75000 
O          O       0.49026   0.38862   0.75000 
H          H       0.45288   0.37324   0.75000 
O          O       0.88927   0.01290   0.75000 
H          H       0.87456   0.05020   0.75000 
O          O       0.11072   0.98712   0.75000 
H          H       0.12542   0.94982   0.75000 
C          C       0.54897   0.52490   0.75000 
C          C       0.45102   0.47512   0.75000 
C          C       0.97798   0.05020   0.75000 
C          C       0.02201   0.94981   0.75000 
C          C       0.54598   0.46995   0.75000 
C          C       0.45400   0.53007   0.75000 
C          C       0.03287   0.04427   0.75000 
C          C       0.96711   0.95575   0.75000 
H          H       0.58561   0.54156   0.75000 
H          H       0.41437   0.45846   0.75000 
H          H       0.96300   0.08731   0.75000 
H          H       0.03698   0.91271   0.75000 
C          C       0.61516   0.04015   0.75000 
C          C       0.38482   0.95987   0.75000 
C          C       0.55850   0.10692   0.75000 
C          C       0.44149   0.89310   0.75000 
C          C       0.64410   0.08678   0.75000 
C          C       0.35589   0.91324   0.75000 
C          C       0.60928   0.12781   0.75000 
C          C       0.39071   0.87221   0.75000 
H          H       0.68404   0.09062   0.75000 
H          H       0.31595   0.90940   0.75000 
H          H       0.61959   0.16656   0.75000 
H          H       0.38039   0.83346   0.75000 
N          N       0.55317   0.93735   0.75000 
N          N       0.44682   0.06267   0.75000 
C          C       0.60618   0.94263   0.75000 
C          C       0.39381   0.05739   0.75000 
C          C       0.46073   0.11405   0.75000 
C          C       0.53925   0.88597   0.75000 
C          C       0.62694   0.89221   0.75000 
C          C       0.37305   0.10781   0.75000 
C          C       0.41435   0.14278   0.75000 
C          C       0.58564   0.85724   0.75000 
H          H       0.66571   0.88223   0.75000 
H          H       0.33427   0.11779   0.75000 
H          H       0.41085   0.18263   0.75000 
H          H       0.58913   0.81739   0.75000 
C          C       0.63658   0.98924   0.75000 
C          C       0.36341   0.01078   0.75000 
C          C       0.51173   0.13636   0.75000 
C          C       0.48825   0.86365   0.75000 
C          C       0.69184   0.98483   0.75000 
C          C       0.30815   0.01519   0.75000 
C          C       0.51645   0.19154   0.75000 
C          C       0.48354   0.80847   0.75000 
C          C       0.71974   0.98256   0.84002 
C          C       0.28025   0.01746   0.84002 
C          C       0.28025   0.01746   0.65997 
C          C       0.71974   0.98256   0.65997 
C          C       0.51891   0.21940   0.65996 
C          C       0.48108   0.78062   0.65996 
C          C       0.48108   0.78062   0.84003 
C          C       0.51891   0.21940   0.84003 
H          H       0.70011   0.98404   0.90586 
H          H       0.29987   0.01597   0.90586 
H          H       0.29987   0.01597   0.59413 
H          H       0.70011   0.98404   0.59413 
H          H       0.51728   0.19982   0.59411 
H          H       0.48271   0.80020   0.59411 
H          H       0.48271   0.80020   0.90588 
H          H       0.51728   0.19982   0.90588 
C          C       0.77481   0.97818   0.83982 
C          C       0.22517   0.02183   0.83982 
C          C       0.22517   0.02183   0.66017 
C          C       0.77481   0.97818   0.66017 
C          C       0.52372   0.27439   0.66018 
C          C       0.47626   0.72563   0.66018 
C          C       0.47626   0.72563   0.83981 
C          C       0.52372   0.27439   0.83981 
H          H       0.79490   0.97641   0.90497 
H          H       0.20509   0.02360   0.90497 
H          H       0.20509   0.02360   0.59503 
H          H       0.79490   0.97641   0.59503 
H          H       0.52567   0.29452   0.59511 
H          H       0.47432   0.70550   0.59511 
H          H       0.47432   0.70550   0.90488 
H          H       0.52567   0.29452   0.90488 
C          C       0.80251   0.97619   0.75000 
C          C       0.19747   0.02382   0.75000 
C          C       0.52595   0.30202   0.75000 
C          C       0.47404   0.69800   0.75000 
O          O       0.59257   0.44508   0.75000 
O          O       0.40741   0.55494   0.75000 
H          H       0.05605   0.07720   0.75000 
H          H       0.94394   0.92282   0.75000 
C          C       0.35854   0.52112   0.75000 
C          C       0.30823   0.55096   0.75000 
C          C       0.25844   0.51642   0.75000 
C          C       0.20582   0.54563   0.75493 
O          O       0.36030   0.46203   0.75097 
H          H       0.30314   0.58450   0.69511 
H          H       0.31485   0.56759   0.82702 
H          H       0.26348   0.48282   0.80469 
H          H       0.25180   0.49989   0.67285 
O          O       0.20530   0.60464   0.76206 
O          O       0.15478   0.51518   0.75531 
H          H       0.16405   0.61835   0.76483 
C          C       0.64144   0.47890   0.75000 
C          C       0.69175   0.44906   0.75000 
C          C       0.74155   0.48360   0.75000 
C          C       0.79416   0.45439   0.75493 
O          O       0.63969   0.53799   0.75097 
H          H       0.69685   0.41551   0.69511 
H          H       0.68513   0.43243   0.82702 
H          H       0.73650   0.51720   0.80469 
H          H       0.74819   0.50012   0.67285 
O          O       0.79468   0.39538   0.76206 
O          O       0.84520   0.48483   0.75531 
H          H       0.83593   0.38167   0.76483 
B          B       0.53073   0.35464   0.75000 
B          B       0.46925   0.64538   0.75000 
B          B       0.14475   0.02805   0.75000 
B          B       0.85523   0.97197   0.75000 
N          N       0.56422   0.05438   0.75000 
N          N       0.43576   0.94564   0.75000 
H          H       0.53508   0.02970   0.75000 
H          H       0.46490   0.97031   0.75000 
