data_crystal

_cell_length_a    39.90660
_cell_length_b    32.78080
_cell_length_c    13.48960
_cell_angle_alpha 90.00000
_cell_angle_beta  90.00000
_cell_angle_gamma 90.00000

_space_group_name_Hall 'P 1'
_space_group_name_H-M_alt  'P 1'

loop_
_symmetry_equiv_pos_as_xyz
'x,y,z' 

loop_
_atom_site_label
_atom_site_type_symbol
_atom_site_fract_x
_atom_site_fract_y
_atom_site_fract_z
C          C       0.23970   0.59874   0.25000 
C          C       0.75214   0.01457   0.25000 
C          C       0.73970   0.09874   0.25000 
C          C       0.25214   0.51457   0.25000 
C          C       0.76030   0.59874   0.25000 
C          C       0.24786   0.01457   0.25000 
C          C       0.26030   0.09874   0.25000 
C          C       0.74786   0.51457   0.25000 
C          C       0.27871   0.54203   0.25000 
C          C       0.71208   0.07102   0.25000 
C          C       0.77871   0.04203   0.25000 
C          C       0.21208   0.57102   0.25000 
C          C       0.72129   0.54203   0.25000 
C          C       0.28792   0.07102   0.25000 
C          C       0.22129   0.04203   0.25000 
C          C       0.78792   0.57102   0.25000 
C          C       0.19308   0.49457   0.25000 
C          C       0.80106   0.11332   0.25000 
C          C       0.69308   0.99457   0.25000 
C          C       0.30106   0.61332   0.25000 
C          C       0.80692   0.49457   0.25000 
C          C       0.19894   0.11332   0.25000 
C          C       0.30692   0.99457   0.25000 
C          C       0.69894   0.61332   0.25000 
C          C       0.27279   0.58408   0.25000 
C          C       0.71860   0.02791   0.25000 
C          C       0.77279   0.08408   0.25000 
C          C       0.21860   0.52792   0.25000 
C          C       0.72721   0.58408   0.25000 
C          C       0.28140   0.02791   0.25000 
C          C       0.22721   0.08408   0.25000 
C          C       0.78140   0.52792   0.25000 
N          N       0.33196   0.60082   0.25000 
N          N       0.66108   0.00101   0.25000 
N          N       0.83196   0.10082   0.25000 
N          N       0.16108   0.50101   0.25000 
N          N       0.66804   0.60082   0.25000 
N          N       0.33892   0.00101   0.25000 
N          N       0.16804   0.10082   0.25000 
N          N       0.83892   0.50101   0.25000 
N          N       0.05756   0.29657   0.25000 
N          N       0.55756   0.79657   0.25000 
N          N       0.94244   0.29657   0.25000 
N          N       0.44244   0.79657   0.25000 
H          H       0.03353   0.29655   0.25000 
H          H       0.53353   0.79655   0.25000 
H          H       0.96647   0.29655   0.25000 
H          H       0.46647   0.79655   0.25000 
C          C       0.07587   0.26233   0.25000 
C          C       0.92412   0.33081   0.25000 
C          C       0.57587   0.76234   0.25000 
C          C       0.42412   0.83081   0.25000 
C          C       0.92413   0.26233   0.25000 
C          C       0.07588   0.33081   0.25000 
C          C       0.42413   0.76234   0.25000 
C          C       0.57588   0.83081   0.25000 
C          C       0.10909   0.27515   0.25000 
C          C       0.89091   0.31802   0.25000 
C          C       0.60909   0.77515   0.25000 
C          C       0.39091   0.81802   0.25000 
C          C       0.89091   0.27515   0.25000 
C          C       0.10909   0.31802   0.25000 
C          C       0.39091   0.77515   0.25000 
C          C       0.60909   0.81802   0.25000 
H          H       0.13100   0.25573   0.25000 
H          H       0.86901   0.33746   0.25000 
H          H       0.63100   0.75573   0.25000 
H          H       0.36901   0.83746   0.25000 
H          H       0.86900   0.25573   0.25000 
H          H       0.13099   0.33746   0.25000 
H          H       0.36900   0.75573   0.25000 
H          H       0.63099   0.83746   0.25000 
N          N       0.50000   0.72853   0.25000 
N          N       0.50000   0.86454   0.25000 
N          N       0.00000   0.22853   0.25000 
N          N      -0.00000   0.36454   0.25000 
C          C       0.52950   0.70457   0.25000 
C          C       0.47051   0.88850   0.25000 
C          C       0.02950   0.20457   0.25000 
C          C       0.97051   0.38850   0.25000 
C          C       0.47050   0.70457   0.25000 
C          C       0.52949   0.88850   0.25000 
C          C       0.97050   0.20457   0.25000 
C          C       0.02949   0.38850   0.25000 
C          C       0.51692   0.66224   0.25000 
C          C       0.48309   0.93084   0.25000 
C          C       0.01692   0.16224   0.25000 
C          C       0.98309   0.43084   0.25000 
C          C       0.48308   0.66224   0.25000 
C          C       0.51691   0.93084   0.25000 
C          C       0.98308   0.16224   0.25000 
C          C       0.01691   0.43084   0.25000 
H          H       0.53228   0.63505   0.25000 
H          H       0.46774   0.95805   0.25000 
H          H       0.03228   0.13505   0.25000 
H          H       0.96774   0.45805   0.25000 
H          H       0.46772   0.63505   0.25000 
H          H       0.53226   0.95805   0.25000 
H          H       0.96772   0.13505   0.25000 
H          H       0.03226   0.45805   0.25000 
C          C       0.06254   0.21810   0.25000 
C          C       0.93746   0.37502   0.25000 
C          C       0.56254   0.71810   0.25000 
C          C       0.43746   0.87502   0.25000 
C          C       0.93746   0.21810   0.25000 
C          C       0.06254   0.37502   0.25000 
C          C       0.43746   0.71810   0.25000 
C          C       0.56254   0.87502   0.25000 
C          C       0.08875   0.18645   0.25000 
C          C       0.91141   0.40688   0.25000 
C          C       0.58875   0.68645   0.25000 
C          C       0.41141   0.90688   0.25000 
C          C       0.91125   0.18645   0.25000 
C          C       0.08859   0.40688   0.25000 
C          C       0.41125   0.68645   0.25000 
C          C       0.58859   0.90688   0.25000 
C          C       0.60169   0.67188   0.33990 
C          C       0.39916   0.92231   0.33990 
C          C       0.10169   0.17188   0.33990 
C          C       0.89916   0.42231   0.33990 
C          C       0.39831   0.67188   0.16010 
C          C       0.60084   0.92231   0.16010 
C          C       0.89831   0.17188   0.16010 
C          C       0.10084   0.42231   0.16010 
C          C       0.39831   0.67188   0.33990 
C          C       0.60084   0.92231   0.33990 
C          C       0.89831   0.17188   0.33990 
C          C       0.10084   0.42231   0.33990 
C          C       0.60169   0.67188   0.16010 
C          C       0.39916   0.92231   0.16010 
C          C       0.10169   0.17188   0.16010 
C          C       0.89916   0.42231   0.16010 
H          H       0.09189   0.18315   0.40953 
H          H       0.90862   0.41065   0.40956 
H          H       0.59189   0.68315   0.40953 
H          H       0.40862   0.91065   0.40956 
H          H       0.90811   0.18315   0.09046 
H          H       0.09138   0.41065   0.09044 
H          H       0.40811   0.68315   0.09046 
H          H       0.59138   0.91065   0.09044 
H          H       0.90811   0.18315   0.40953 
H          H       0.09138   0.41065   0.40956 
H          H       0.40811   0.68315   0.40953 
H          H       0.59138   0.91065   0.40956 
H          H       0.09189   0.18315   0.09046 
H          H       0.90862   0.41065   0.09044 
H          H       0.59189   0.68315   0.09046 
H          H       0.40862   0.91065   0.09044 
C          C       0.12760   0.14312   0.33973 
C          C       0.87496   0.45322   0.33971 
C          C       0.62760   0.64312   0.33973 
C          C       0.37496   0.95322   0.33971 
C          C       0.87240   0.14312   0.16026 
C          C       0.12504   0.45322   0.16029 
C          C       0.37240   0.64312   0.16026 
C          C       0.62504   0.95322   0.16029 
C          C       0.87240   0.14312   0.33973 
C          C       0.12504   0.45322   0.33971 
C          C       0.37240   0.64312   0.33973 
C          C       0.62504   0.95322   0.33971 
C          C       0.12760   0.14312   0.16026 
C          C       0.87496   0.45322   0.16029 
C          C       0.62760   0.64312   0.16026 
C          C       0.37496   0.95322   0.16029 
H          H       0.13786   0.13206   0.40885 
H          H       0.86572   0.46562   0.40872 
H          H       0.63786   0.63206   0.40885 
H          H       0.36572   0.96562   0.40872 
H          H       0.86214   0.13206   0.09115 
H          H       0.13428   0.46562   0.09128 
H          H       0.36214   0.63206   0.09115 
H          H       0.63428   0.96562   0.09128 
H          H       0.86214   0.13206   0.40885 
H          H       0.13428   0.46562   0.40872 
H          H       0.36214   0.63206   0.40885 
H          H       0.63428   0.96562   0.40872 
H          H       0.13786   0.13206   0.09115 
H          H       0.86572   0.46562   0.09128 
H          H       0.63786   0.63206   0.09115 
H          H       0.36572   0.96562   0.09128 
C          C       0.14074   0.12895   0.25000 
C          C       0.86280   0.46860   0.25000 
C          C       0.64074   0.62895   0.25000 
C          C       0.36280   0.96860   0.25000 
C          C       0.85926   0.12895   0.25000 
C          C       0.13720   0.46860   0.25000 
C          C       0.35926   0.62895   0.25000 
C          C       0.63720   0.96860   0.25000 
O          O       0.23489   0.64136   0.25000 
H          H       0.30419   0.53044   0.25000 
H          H       0.20197   0.46324   0.25000 
H          H       0.75798   0.98224   0.25000 
O          O       0.67973   0.08836   0.25000 
H          H       0.79567   0.14584   0.25000 
H          H       0.21025   0.64934   0.25000 
H          H       0.66011   0.06914   0.25000 
O          O       0.73489   0.14136   0.25000 
H          H       0.80419   0.03044   0.25000 
H          H       0.70197   0.96324   0.25000 
H          H       0.25798   0.48224   0.25000 
O          O       0.17973   0.58836   0.25000 
H          H       0.29567   0.64584   0.25000 
H          H       0.71025   0.14934   0.25000 
H          H       0.16011   0.56914   0.25000 
O          O       0.76511   0.64136   0.25000 
H          H       0.69581   0.53044   0.25000 
H          H       0.79803   0.46324   0.25000 
H          H       0.24202   0.98224   0.25000 
O          O       0.32027   0.08836   0.25000 
H          H       0.20433   0.14584   0.25000 
H          H       0.78975   0.64934   0.25000 
H          H       0.33989   0.06914   0.25000 
O          O       0.26511   0.14136   0.25000 
H          H       0.19581   0.03044   0.25000 
H          H       0.29803   0.96324   0.25000 
H          H       0.74202   0.48224   0.25000 
O          O       0.82027   0.58836   0.25000 
H          H       0.70433   0.64584   0.25000 
H          H       0.28975   0.14934   0.25000 
H          H       0.83989   0.56914   0.25000 
C          C       0.23970   0.59874   0.75000 
C          C       0.75214   0.01457   0.75000 
C          C       0.73970   0.09874   0.75000 
C          C       0.25214   0.51457   0.75000 
C          C       0.76030   0.59874   0.75000 
C          C       0.24786   0.01457   0.75000 
C          C       0.26030   0.09874   0.75000 
C          C       0.74786   0.51457   0.75000 
C          C       0.27871   0.54203   0.75000 
C          C       0.71208   0.07102   0.75000 
C          C       0.77871   0.04203   0.75000 
C          C       0.21208   0.57102   0.75000 
C          C       0.72129   0.54203   0.75000 
C          C       0.28792   0.07102   0.75000 
C          C       0.22129   0.04203   0.75000 
C          C       0.78792   0.57102   0.75000 
C          C       0.19308   0.49457   0.75000 
C          C       0.80106   0.11332   0.75000 
C          C       0.69308   0.99457   0.75000 
C          C       0.30106   0.61332   0.75000 
C          C       0.80692   0.49457   0.75000 
C          C       0.19894   0.11332   0.75000 
C          C       0.30692   0.99457   0.75000 
C          C       0.69894   0.61332   0.75000 
C          C       0.27279   0.58408   0.75000 
C          C       0.71860   0.02791   0.75000 
C          C       0.77279   0.08408   0.75000 
C          C       0.21860   0.52792   0.75000 
C          C       0.72721   0.58408   0.75000 
C          C       0.28140   0.02791   0.75000 
C          C       0.22721   0.08408   0.75000 
C          C       0.78140   0.52792   0.75000 
N          N       0.33196   0.60082   0.75000 
N          N       0.66108   0.00101   0.75000 
N          N       0.83196   0.10082   0.75000 
N          N       0.16108   0.50101   0.75000 
N          N       0.66804   0.60082   0.75000 
N          N       0.33892   0.00101   0.75000 
N          N       0.16804   0.10082   0.75000 
N          N       0.83892   0.50101   0.75000 
N          N       0.05756   0.29657   0.75000 
N          N       0.55756   0.79657   0.75000 
N          N       0.94244   0.29657   0.75000 
N          N       0.44244   0.79657   0.75000 
H          H       0.03353   0.29655   0.75000 
H          H       0.53353   0.79655   0.75000 
H          H       0.96647   0.29655   0.75000 
H          H       0.46647   0.79655   0.75000 
C          C       0.07587   0.26233   0.75000 
C          C       0.92412   0.33081   0.75000 
C          C       0.57587   0.76234   0.75000 
C          C       0.42412   0.83081   0.75000 
C          C       0.92413   0.26233   0.75000 
C          C       0.07588   0.33081   0.75000 
C          C       0.42413   0.76234   0.75000 
C          C       0.57588   0.83081   0.75000 
C          C       0.10909   0.27515   0.75000 
C          C       0.89091   0.31802   0.75000 
C          C       0.60909   0.77515   0.75000 
C          C       0.39091   0.81802   0.75000 
C          C       0.89091   0.27515   0.75000 
C          C       0.10909   0.31802   0.75000 
C          C       0.39091   0.77515   0.75000 
C          C       0.60909   0.81802   0.75000 
H          H       0.13100   0.25573   0.75000 
H          H       0.86901   0.33746   0.75000 
H          H       0.63100   0.75573   0.75000 
H          H       0.36901   0.83746   0.75000 
H          H       0.86900   0.25573   0.75000 
H          H       0.13099   0.33746   0.75000 
H          H       0.36900   0.75573   0.75000 
H          H       0.63099   0.83746   0.75000 
N          N       0.50000   0.72853   0.75000 
N          N       0.50000   0.86454   0.75000 
N          N       0.00000   0.22853   0.75000 
N          N       0.00000   0.36454   0.75000 
C          C       0.52950   0.70457   0.75000 
C          C       0.47051   0.88850   0.75000 
C          C       0.02950   0.20457   0.75000 
C          C       0.97051   0.38850   0.75000 
C          C       0.47050   0.70457   0.75000 
C          C       0.52949   0.88850   0.75000 
C          C       0.97050   0.20457   0.75000 
C          C       0.02949   0.38850   0.75000 
C          C       0.51692   0.66224   0.75000 
C          C       0.48309   0.93084   0.75000 
C          C       0.01692   0.16224   0.75000 
C          C       0.98309   0.43084   0.75000 
C          C       0.48308   0.66224   0.75000 
C          C       0.51691   0.93084   0.75000 
C          C       0.98308   0.16224   0.75000 
C          C       0.01691   0.43084   0.75000 
H          H       0.53228   0.63505   0.75000 
H          H       0.46774   0.95805   0.75000 
H          H       0.03228   0.13505   0.75000 
H          H       0.96774   0.45805   0.75000 
H          H       0.46772   0.63505   0.75000 
H          H       0.53226   0.95805   0.75000 
H          H       0.96772   0.13505   0.75000 
H          H       0.03226   0.45805   0.75000 
C          C       0.06254   0.21810   0.75000 
C          C       0.93746   0.37502   0.75000 
C          C       0.56254   0.71810   0.75000 
C          C       0.43746   0.87502   0.75000 
C          C       0.93746   0.21810   0.75000 
C          C       0.06254   0.37502   0.75000 
C          C       0.43746   0.71810   0.75000 
C          C       0.56254   0.87502   0.75000 
C          C       0.08875   0.18645   0.75000 
C          C       0.91141   0.40688   0.75000 
C          C       0.58875   0.68645   0.75000 
C          C       0.41141   0.90688   0.75000 
C          C       0.91125   0.18645   0.75000 
C          C       0.08859   0.40688   0.75000 
C          C       0.41125   0.68645   0.75000 
C          C       0.58859   0.90688   0.75000 
C          C       0.60169   0.67188   0.83990 
C          C       0.39916   0.92231   0.83990 
C          C       0.10169   0.17188   0.83990 
C          C       0.89916   0.42231   0.83990 
C          C       0.39831   0.67188   0.66010 
C          C       0.60084   0.92231   0.66010 
C          C       0.89831   0.17188   0.66010 
C          C       0.10084   0.42231   0.66010 
C          C       0.39831   0.67188   0.83990 
C          C       0.60084   0.92231   0.83990 
C          C       0.89831   0.17188   0.83990 
C          C       0.10084   0.42231   0.83990 
C          C       0.60169   0.67188   0.66010 
C          C       0.39916   0.92231   0.66010 
C          C       0.10169   0.17188   0.66010 
C          C       0.89916   0.42231   0.66010 
H          H       0.09189   0.18315   0.90953 
H          H       0.90862   0.41065   0.90956 
H          H       0.59189   0.68315   0.90953 
H          H       0.40862   0.91065   0.90956 
H          H       0.90811   0.18315   0.59046 
H          H       0.09138   0.41065   0.59045 
H          H       0.40811   0.68315   0.59046 
H          H       0.59138   0.91065   0.59045 
H          H       0.90811   0.18315   0.90953 
H          H       0.09138   0.41065   0.90956 
H          H       0.40811   0.68315   0.90953 
H          H       0.59138   0.91065   0.90956 
H          H       0.09189   0.18315   0.59046 
H          H       0.90862   0.41065   0.59045 
H          H       0.59189   0.68315   0.59046 
H          H       0.40862   0.91065   0.59045 
C          C       0.12760   0.14312   0.83973 
C          C       0.87496   0.45322   0.83971 
C          C       0.62760   0.64312   0.83973 
C          C       0.37496   0.95322   0.83971 
C          C       0.87240   0.14312   0.66027 
C          C       0.12504   0.45322   0.66029 
C          C       0.37240   0.64312   0.66027 
C          C       0.62504   0.95322   0.66029 
C          C       0.87240   0.14312   0.83973 
C          C       0.12504   0.45322   0.83971 
C          C       0.37240   0.64312   0.83973 
C          C       0.62504   0.95322   0.83971 
C          C       0.12760   0.14312   0.66027 
C          C       0.87496   0.45322   0.66029 
C          C       0.62760   0.64312   0.66027 
C          C       0.37496   0.95322   0.66029 
H          H       0.13786   0.13206   0.90885 
H          H       0.86572   0.46562   0.90872 
H          H       0.63786   0.63206   0.90885 
H          H       0.36572   0.96562   0.90872 
H          H       0.86214   0.13206   0.59115 
H          H       0.13428   0.46562   0.59128 
H          H       0.36214   0.63206   0.59115 
H          H       0.63428   0.96562   0.59128 
H          H       0.86214   0.13206   0.90885 
H          H       0.13428   0.46562   0.90872 
H          H       0.36214   0.63206   0.90885 
H          H       0.63428   0.96562   0.90872 
H          H       0.13786   0.13206   0.59115 
H          H       0.86572   0.46562   0.59128 
H          H       0.63786   0.63206   0.59115 
H          H       0.36572   0.96562   0.59128 
C          C       0.14074   0.12895   0.75000 
C          C       0.86280   0.46860   0.75000 
C          C       0.64074   0.62895   0.75000 
C          C       0.36280   0.96860   0.75000 
C          C       0.85926   0.12895   0.75000 
C          C       0.13720   0.46860   0.75000 
C          C       0.35926   0.62895   0.75000 
C          C       0.63720   0.96860   0.75000 
O          O       0.23489   0.64136   0.75000 
H          H       0.30419   0.53044   0.75000 
H          H       0.20197   0.46324   0.75000 
H          H       0.75798   0.98224   0.75000 
O          O       0.67973   0.08836   0.75000 
H          H       0.79567   0.14584   0.75000 
H          H       0.21025   0.64934   0.75000 
H          H       0.66011   0.06914   0.75000 
O          O       0.73489   0.14136   0.75000 
H          H       0.80419   0.03044   0.75000 
H          H       0.70197   0.96324   0.75000 
H          H       0.25798   0.48224   0.75000 
O          O       0.17973   0.58836   0.75000 
H          H       0.29567   0.64584   0.75000 
H          H       0.71025   0.14934   0.75000 
H          H       0.16011   0.56914   0.75000 
O          O       0.76511   0.64136   0.75000 
H          H       0.69581   0.53044   0.75000 
H          H       0.79803   0.46324   0.75000 
H          H       0.24202   0.98224   0.75000 
O          O       0.32027   0.08836   0.75000 
H          H       0.20433   0.14584   0.75000 
H          H       0.78975   0.64934   0.75000 
H          H       0.33989   0.06914   0.75000 
O          O       0.26511   0.14136   0.75000 
H          H       0.19581   0.03044   0.75000 
H          H       0.29803   0.96324   0.75000 
H          H       0.74202   0.48224   0.75000 
O          O       0.82027   0.58836   0.75000 
H          H       0.70433   0.64584   0.75000 
H          H       0.28975   0.14934   0.75000 
H          H       0.83989   0.56914   0.75000 
