data_N3-COF
_audit_creation_date              0000-00-00
_audit_creation_method            'LanYouShi'
_symmetry_space_group_name_H-M    'P1'
_cell_length_a                    25.8027000
_cell_length_b                    25.8027000
_cell_length_c                    3.4700000
_cell_angle_alpha                 90.0000000
_cell_angle_beta                  90.0000000
_cell_angle_gamma                 120.0000000
loop_
_atom_site_label
_atom_site_type_symbol
_atom_site_fract_x
_atom_site_fract_y
_atom_site_fract_z
_atom_site_U_iso_or_equiv
_atom_site_adp_type
_atom_site_occupancy
        C1          C  0.7281832  0.3614662  0.5075018    0.00000       Uiso       1.00
        C1          C  0.2726391  0.6272387  0.5075018    0.00000       Uiso       1.00
        C1          C  0.6385320  0.3667170  0.5075018    0.00000       Uiso       1.00
        C1          C  0.3727594  0.6453986  0.5075018    0.00000       Uiso       1.00
        C1          C  0.6332812  0.2718150  0.5075018    0.00000       Uiso       1.00
        C1          C  0.3545996  0.7273590  0.5075018    0.00000       Uiso       1.00
        N1          N  0.6939575  0.3009469  0.5075018    0.00000       Uiso       1.00
        N1          N  0.2950846  0.6872967  0.5075018    0.00000       Uiso       1.00
        N1          N  0.6990513  0.3930106  0.5075018    0.00000       Uiso       1.00
        N1          N  0.3127014  0.6077861  0.5075018    0.00000       Uiso       1.00
        N1          N  0.6069875  0.3060406  0.5075018    0.00000       Uiso       1.00
        N1          N  0.3922121  0.7049135  0.5075018    0.00000       Uiso       1.00
        C1          C  0.2101749  0.5866524  0.5075018    0.00000       Uiso       1.00
        C2          C  0.7915138  0.3904293  0.5075018    0.00000       Uiso       1.00
        C3          C  0.4133458  0.6235206  0.5075018    0.00000       Uiso       1.00
        C4          C  0.6095688  0.4010845  0.5075018    0.00000       Uiso       1.00
        C5          C  0.3764775  0.7898233  0.5075018    0.00000       Uiso       1.00
        C6          C  0.5989137  0.2084844  0.5075018    0.00000       Uiso       1.00
        C7          C  0.1683987  0.6071129  0.5075018    0.00000       Uiso       1.00
        C8          C  0.8218409  0.3572788  0.5075018    0.00000       Uiso       1.00
        C9          C  0.6265755  0.1728228  0.5075018    0.00000       Uiso       1.00
       C10          C  0.3370242  0.8131267  0.5075018    0.00000       Uiso       1.00
       C11          C  0.3928852  0.5612839  0.5075018    0.00000       Uiso       1.00
       C12          C  0.6427193  0.4645621  0.5075018    0.00000       Uiso       1.00
       C13          C  0.8271754  0.4537527  0.5075018    0.00000       Uiso       1.00
       C14          C  0.1868714  0.5238957  0.5075018    0.00000       Uiso       1.00
       C15          C  0.4387142  0.8315995  0.5075018    0.00000       Uiso       1.00
       C16          C  0.5354361  0.1781573  0.5075018    0.00000       Uiso       1.00
       C17          C  0.5462455  0.3734226  0.5075018    0.00000       Uiso       1.00
       C18          C  0.4761025  0.6629739  0.5075018    0.00000       Uiso       1.00
       C19          C  0.1063574  0.5668070  0.5075018    0.00000       Uiso       1.00
       C20          C  0.8847697  0.3860168  0.5075018    0.00000       Uiso       1.00
       C21          C  0.5923488  0.1099109  0.5075018    0.00000       Uiso       1.00
       C22          C  0.3586977  0.8751609  0.5075018    0.00000       Uiso       1.00
       C23          C  0.4331911  0.5395486  0.5075018    0.00000       Uiso       1.00
       C24          C  0.6139814  0.4987530  0.5075018    0.00000       Uiso       1.00
       C25          C  0.8900873  0.4824379  0.5075018    0.00000       Uiso       1.00
       C26          C  0.1248373  0.4835350  0.5075018    0.00000       Uiso       1.00
       C27          C  0.4604496  0.8936407  0.5075018    0.00000       Uiso       1.00
       C28          C  0.5012452  0.1152284  0.5075018    0.00000       Uiso       1.00
       C29          C  0.5175602  0.4076494  0.5075018    0.00000       Uiso       1.00
       C30          C  0.5164631  0.6413004  0.5075018    0.00000       Uiso       1.00
       C31          C  0.0834400  0.5042682  0.5075018    0.00000       Uiso       1.00
       C32          C  0.9196556  0.4490775  0.5075018    0.00000       Uiso       1.00
       C33          C  0.4957300  0.5791700  0.5075018    0.00000       Uiso       1.00
       C34          C  0.5509207  0.4705781  0.5075018    0.00000       Uiso       1.00
       C35          C  0.4208281  0.9165581  0.5075018    0.00000       Uiso       1.00
       C36          C  0.5294201  0.0803426  0.5075018    0.00000       Uiso       1.00
        N1          N  0.5005099  0.0197668  0.5075018    0.00000       Uiso       1.00
       C37          C  0.4414714  0.9785118  0.5075018    0.00000       Uiso       1.00
        N2          N  0.9802313  0.4807431  0.5075018    0.00000       Uiso       1.00
       C38          C  0.0214864  0.4629578  0.5075018    0.00000       Uiso       1.00
        N3          N  0.5192550  0.4994882  0.5075018    0.00000       Uiso       1.00
       C39          C  0.5370404  0.5585268  0.5075018    0.00000       Uiso       1.00
        H1          H  0.1827190  0.6519316  0.5075018    0.00000       Uiso       1.00
        H2          H  0.7982970  0.3114884  0.5075018    0.00000       Uiso       1.00
        H3          H  0.6722049  0.1923126  0.5075018    0.00000       Uiso       1.00
        H4          H  0.2916739  0.7849855  0.5075018    0.00000       Uiso       1.00
        H5          H  0.3480666  0.5307856  0.5075018    0.00000       Uiso       1.00
        H6          H  0.6885098  0.4868087  0.5075018    0.00000       Uiso       1.00
        H7          H  0.8076856  0.4798923  0.5075018    0.00000       Uiso       1.00
        H8          H  0.2150126  0.5066866  0.5075018    0.00000       Uiso       1.00
        H9          H  0.4692125  0.8172791  0.5075018    0.00000       Uiso       1.00
       H10          H  0.5131894  0.2017011  0.5075018    0.00000       Uiso       1.00
       H11          H  0.5201058  0.3277933  0.5075018    0.00000       Uiso       1.00
       H12          H  0.4933116  0.7083242  0.5075018    0.00000       Uiso       1.00
       H13          H  0.0779376  0.5836800  0.5075018    0.00000       Uiso       1.00
       H14          H  0.9046676  0.3604190  0.5075018    0.00000       Uiso       1.00
       H15          H  0.6136025  0.0854294  0.5075018    0.00000       Uiso       1.00
       H16          H  0.3284057  0.8897644  0.5075018    0.00000       Uiso       1.00
       H17          H  0.4163181  0.4942557  0.5075018    0.00000       Uiso       1.00
       H18          H  0.6395792  0.5442486  0.5075018    0.00000       Uiso       1.00
       H19          H  0.9145688  0.5281731  0.5075018    0.00000       Uiso       1.00
       H20          H  0.1102337  0.4386395  0.5075018    0.00000       Uiso       1.00
       H21          H  0.5057424  0.9220606  0.5075018    0.00000       Uiso       1.00
       H22          H  0.4557495  0.0953305  0.5075018    0.00000       Uiso       1.00
       H23          H  0.4718250  0.3863956  0.5075018    0.00000       Uiso       1.00
       H24          H  0.5613587  0.6715924  0.5075018    0.00000       Uiso       1.00
       H25          H  0.4107042  0.9924145  0.5075018    0.00000       Uiso       1.00
       H26          H  0.0075837  0.4182879  0.5075018    0.00000       Uiso       1.00
       H27          H  0.5817102  0.5892940  0.5075018    0.00000       Uiso       1.00
