data_crystal
 
_cell_length_a    43.82380
_cell_length_b    43.82380
_cell_length_c    7.18820
_cell_angle_alpha 90.00000
_cell_angle_beta  90.00000
_cell_angle_gamma 120.00000
 
_symmetry_space_group_name_Hall 'P 1'
_symmetry_space_group_name_H-M  'P 1'
 
loop_
_symmetry_equiv_pos_as_xyz
 'x,y,z' 
 
loop_
_atom_site_label
_atom_site_type_symbol
_atom_site_fract_x
_atom_site_fract_y
_atom_site_fract_z
_atom_site_charge
C          C       0.85469   0.45542   0.24999   0.0000000000
C          C       0.54458   0.39927   0.24999   0.0000000000
C          C       0.60073   0.14531   0.24999   0.0000000000
C          C       0.14531   0.54458   0.24999   0.0000000000
C          C       0.45542   0.60073   0.24999   0.0000000000
C          C       0.39927   0.85469   0.24999   0.0000000000
N          N       0.87856   0.44449   0.24999   0.0000000000
N          N       0.55551   0.43407   0.24999   0.0000000000
N          N       0.56593   0.12144   0.24999   0.0000000000
N          N       0.12144   0.55551   0.24999   0.0000000000
N          N       0.44449   0.56593   0.24999   0.0000000000
N          N       0.43407   0.87856   0.24999   0.0000000000
N          N       0.91291   0.46192   0.24999   0.0000000000
N          N       0.53808   0.45099   0.24999   0.0000000000
N          N       0.54901   0.08709   0.24999   0.0000000000
N          N       0.08709   0.53808   0.24999   0.0000000000
N          N       0.46192   0.54901   0.24999   0.0000000000
N          N       0.45099   0.91291   0.24999   0.0000000000
C          C       0.00276   0.53414   0.24999   0.0000000000
C          C       0.46586   0.46861   0.24999   0.0000000000
C          C       0.53139   0.99725   0.24999   0.0000000000
C          C       0.99725   0.46586   0.24999   0.0000000000
C          C       0.53414   0.53139   0.24999   0.0000000000
C          C       0.46861   0.00276   0.24999   0.0000000000
C          C       0.96982   0.50280   0.24999   0.0000000000
C          C       0.49720   0.46701   0.24999   0.0000000000
C          C       0.53299   0.03019   0.24999   0.0000000000
C          C       0.03019   0.49720   0.24999   0.0000000000
C          C       0.50280   0.53299   0.24999   0.0000000000
C          C       0.46701   0.96982   0.24999   0.0000000000
C          C       0.96718   0.46970   0.24999   0.0000000000
C          C       0.53030   0.49747   0.24999   0.0000000000
C          C       0.50253   0.03283   0.24999   0.0000000000
C          C       0.03283   0.53030   0.24999   0.0000000000
C          C       0.46970   0.50253   0.24999   0.0000000000
C          C       0.49747   0.96718   0.24999   0.0000000000
C          C       0.93566   0.49719   0.24999   0.0000000000
C          C       0.50281   0.43847   0.24999   0.0000000000
C          C       0.56153   0.06434   0.24999   0.0000000000
C          C       0.06434   0.50281   0.24999   0.0000000000
C          C       0.49719   0.56153   0.24999   0.0000000000
C          C       0.43847   0.93566   0.24999   0.0000000000
C          C       0.93148   0.44488   0.24999   0.0000000000
C          C       0.55512   0.48660   0.24999   0.0000000000
C          C       0.51340   0.06852   0.24999   0.0000000000
C          C       0.06852   0.55512   0.24999   0.0000000000
C          C       0.44488   0.51340   0.24999   0.0000000000
C          C       0.48660   0.93148   0.24999   0.0000000000
H          H       0.13677   0.51821   0.24999   0.0000000000
H          H       0.48179   0.61856   0.24999   0.0000000000
H          H       0.38144   0.86323   0.24999   0.0000000000
H          H       0.86323   0.48179   0.24999   0.0000000000
H          H       0.51821   0.38144   0.24999   0.0000000000
H          H       0.61856   0.13677   0.24999   0.0000000000
O          O       0.07165   0.47861   0.24999   0.0000000000
O          O       0.52139   0.59304   0.24999   0.0000000000
O          O       0.40696   0.92835   0.24999   0.0000000000
O          O       0.92835   0.52139   0.24999   0.0000000000
O          O       0.47861   0.40696   0.24999   0.0000000000
O          O       0.59304   0.07165   0.24999   0.0000000000
O          O       0.08099   0.58783   0.24999   0.0000000000
O          O       0.41217   0.49316   0.24999   0.0000000000
O          O       0.50684   0.91902   0.24999   0.0000000000
O          O       0.91902   0.41217   0.24999   0.0000000000
O          O       0.58783   0.50684   0.24999   0.0000000000
O          O       0.49316   0.08099   0.24999   0.0000000000
H          H       0.99526   0.44161   0.24999   0.0000000000
H          H       0.55839   0.55365   0.24999   0.0000000000
H          H       0.44635   0.00474   0.24999   0.0000000000
H          H       0.00474   0.55839   0.24999   0.0000000000
H          H       0.44161   0.44635   0.24999   0.0000000000
H          H       0.55365   0.99526   0.24999   0.0000000000
C          C       0.19559   0.60550   0.24999   0.0000000000
C          C       0.23217   0.62895   0.24999   0.0000000000
C          C       0.39450   0.59009   0.24999   0.0000000000
C          C       0.37105   0.60323   0.24999   0.0000000000
C          C       0.40991   0.80442   0.24999   0.0000000000
C          C       0.39677   0.76783   0.24999   0.0000000000
C          C       0.80442   0.39450   0.24999   0.0000000000
C          C       0.76783   0.37105   0.24999   0.0000000000
C          C       0.60550   0.40991   0.24999   0.0000000000
C          C       0.62895   0.39677   0.24999   0.0000000000
C          C       0.59009   0.19559   0.24999   0.0000000000
C          C       0.60323   0.23217   0.24999   0.0000000000
H          H       0.17913   0.61572   0.24999   0.0000000000
H          H       0.23913   0.65475   0.24999   0.0000000000
H          H       0.38428   0.56340   0.24999   0.0000000000
H          H       0.34525   0.58438   0.24999   0.0000000000
H          H       0.43660   0.82087   0.24999   0.0000000000
H          H       0.41562   0.76087   0.24999   0.0000000000
H          H       0.82087   0.38428   0.24999   0.0000000000
H          H       0.76087   0.34525   0.24999   0.0000000000
H          H       0.61572   0.43660   0.24999   0.0000000000
H          H       0.65475   0.41562   0.24999   0.0000000000
H          H       0.56340   0.17913   0.24999   0.0000000000
H          H       0.58438   0.23913   0.24999   0.0000000000
C          C       0.35053   0.79395   0.24999   0.0000000000
C          C       0.33773   0.75739   0.24999   0.0000000000
C          C       0.20606   0.55658   0.24999   0.0000000000
C          C       0.24261   0.58034   0.24999   0.0000000000
C          C       0.44342   0.64947   0.24999   0.0000000000
C          C       0.41966   0.66227   0.24999   0.0000000000
C          C       0.64947   0.20606   0.24999   0.0000000000
C          C       0.66227   0.24261   0.24999   0.0000000000
C          C       0.79395   0.44342   0.24999   0.0000000000
C          C       0.75739   0.41966   0.24999   0.0000000000
C          C       0.55658   0.35053   0.24999   0.0000000000
C          C       0.58034   0.33773   0.24999   0.0000000000
H          H       0.33282   0.80268   0.24999   0.0000000000
H          H       0.31111   0.74237   0.24999   0.0000000000
H          H       0.19732   0.53014   0.24999   0.0000000000
H          H       0.25763   0.56873   0.24999   0.0000000000
H          H       0.46986   0.66718   0.24999   0.0000000000
H          H       0.43127   0.68889   0.24999   0.0000000000
H          H       0.66718   0.19732   0.24999   0.0000000000
H          H       0.68889   0.25763   0.24999   0.0000000000
H          H       0.80268   0.46986   0.24999   0.0000000000
H          H       0.74237   0.43127   0.24999   0.0000000000
H          H       0.53014   0.33282   0.24999   0.0000000000
H          H       0.56873   0.31111   0.24999   0.0000000000
C          C       0.34677   0.70467   0.24999   0.0000000000
C          C       0.29533   0.64210   0.24999   0.0000000000
C          C       0.35790   0.65323   0.24999   0.0000000000
C          C       0.38696   0.81822   0.24999   0.0000000000
C          C       0.18178   0.56874   0.24999   0.0000000000
C          C       0.43126   0.61304   0.24999   0.0000000000
C          C       0.36006   0.74230   0.24999   0.0000000000
C          C       0.25770   0.61776   0.24999   0.0000000000
C          C       0.38224   0.63994   0.24999   0.0000000000
C          C       0.36906   0.68976   0.24999   0.0000000000
C          C       0.31024   0.67930   0.24999   0.0000000000
C          C       0.32070   0.63094   0.24999   0.0000000000
C          C       0.65323   0.29533   0.24999   0.0000000000
C          C       0.70467   0.35790   0.24999   0.0000000000
C          C       0.64210   0.34677   0.24999   0.0000000000
C          C       0.61304   0.18178   0.24999   0.0000000000
C          C       0.81822   0.43126   0.24999   0.0000000000
C          C       0.56874   0.38696   0.24999   0.0000000000
C          C       0.63994   0.25770   0.24999   0.0000000000
C          C       0.74230   0.38224   0.24999   0.0000000000
C          C       0.61776   0.36006   0.24999   0.0000000000
C          C       0.63094   0.31024   0.24999   0.0000000000
C          C       0.68976   0.32070   0.24999   0.0000000000
C          C       0.67930   0.36906   0.24999   0.0000000000
H          H       0.29349   0.68849   0.24999   0.0000000000
H          H       0.31151   0.60500   0.24999   0.0000000000
H          H       0.39500   0.70651   0.24999   0.0000000000
H          H       0.70651   0.31151   0.24999   0.0000000000
H          H       0.68849   0.39500   0.24999   0.0000000000
H          H       0.60500   0.29349   0.24999   0.0000000000
C          C       0.85469   0.45542   0.74999   0.0000000000
C          C       0.54458   0.39927   0.74999   0.0000000000
C          C       0.60073   0.14531   0.74999   0.0000000000
C          C       0.14531   0.54458   0.74999   0.0000000000
C          C       0.45542   0.60073   0.74999   0.0000000000
C          C       0.39927   0.85469   0.74999   0.0000000000
N          N       0.87856   0.44449   0.74999   0.0000000000
N          N       0.55551   0.43407   0.74999   0.0000000000
N          N       0.56593   0.12144   0.74999   0.0000000000
N          N       0.12144   0.55551   0.74999   0.0000000000
N          N       0.44449   0.56593   0.74999   0.0000000000
N          N       0.43407   0.87856   0.74999   0.0000000000
N          N       0.91291   0.46192   0.74999   0.0000000000
N          N       0.53808   0.45099   0.74999   0.0000000000
N          N       0.54901   0.08709   0.74999   0.0000000000
N          N       0.08709   0.53808   0.74999   0.0000000000
N          N       0.46192   0.54901   0.74999   0.0000000000
N          N       0.45099   0.91291   0.74999   0.0000000000
C          C       0.00276   0.53414   0.74999   0.0000000000
C          C       0.46586   0.46861   0.74999   0.0000000000
C          C       0.53139   0.99725   0.74999   0.0000000000
C          C       0.99725   0.46586   0.74999   0.0000000000
C          C       0.53414   0.53139   0.74999   0.0000000000
C          C       0.46861   0.00276   0.74999   0.0000000000
C          C       0.96982   0.50280   0.74999   0.0000000000
C          C       0.49720   0.46701   0.74999   0.0000000000
C          C       0.53299   0.03019   0.74999   0.0000000000
C          C       0.03019   0.49720   0.74999   0.0000000000
C          C       0.50280   0.53299   0.74999   0.0000000000
C          C       0.46701   0.96982   0.74999   0.0000000000
C          C       0.96718   0.46970   0.74999   0.0000000000
C          C       0.53030   0.49747   0.74999   0.0000000000
C          C       0.50253   0.03283   0.74999   0.0000000000
C          C       0.03283   0.53030   0.74999   0.0000000000
C          C       0.46970   0.50253   0.74999   0.0000000000
C          C       0.49747   0.96718   0.74999   0.0000000000
C          C       0.93566   0.49719   0.74999   0.0000000000
C          C       0.50281   0.43847   0.74999   0.0000000000
C          C       0.56153   0.06434   0.74999   0.0000000000
C          C       0.06434   0.50281   0.74999   0.0000000000
C          C       0.49719   0.56153   0.74999   0.0000000000
C          C       0.43847   0.93566   0.74999   0.0000000000
C          C       0.93148   0.44488   0.74999   0.0000000000
C          C       0.55512   0.48660   0.74999   0.0000000000
C          C       0.51340   0.06852   0.74999   0.0000000000
C          C       0.06852   0.55512   0.74999   0.0000000000
C          C       0.44488   0.51340   0.74999   0.0000000000
C          C       0.48660   0.93148   0.74999   0.0000000000
H          H       0.13677   0.51821   0.74999   0.0000000000
H          H       0.48179   0.61856   0.74999   0.0000000000
H          H       0.38144   0.86323   0.74999   0.0000000000
H          H       0.86323   0.48179   0.74999   0.0000000000
H          H       0.51821   0.38144   0.74999   0.0000000000
H          H       0.61856   0.13677   0.74999   0.0000000000
O          O       0.07165   0.47861   0.74999   0.0000000000
O          O       0.52139   0.59304   0.74999   0.0000000000
O          O       0.40696   0.92835   0.74999   0.0000000000
O          O       0.92835   0.52139   0.74999   0.0000000000
O          O       0.47861   0.40696   0.74999   0.0000000000
O          O       0.59304   0.07165   0.74999   0.0000000000
O          O       0.08099   0.58783   0.74999   0.0000000000
O          O       0.41217   0.49316   0.74999   0.0000000000
O          O       0.50684   0.91902   0.74999   0.0000000000
O          O       0.91902   0.41217   0.74999   0.0000000000
O          O       0.58783   0.50684   0.74999   0.0000000000
O          O       0.49316   0.08099   0.74999   0.0000000000
H          H       0.99526   0.44161   0.74999   0.0000000000
H          H       0.55839   0.55365   0.74999   0.0000000000
H          H       0.44635   0.00474   0.74999   0.0000000000
H          H       0.00474   0.55839   0.74999   0.0000000000
H          H       0.44161   0.44635   0.74999   0.0000000000
H          H       0.55365   0.99526   0.74999   0.0000000000
C          C       0.19559   0.60550   0.74999   0.0000000000
C          C       0.23217   0.62895   0.74999   0.0000000000
C          C       0.39450   0.59009   0.74999   0.0000000000
C          C       0.37105   0.60323   0.74999   0.0000000000
C          C       0.40991   0.80442   0.74999   0.0000000000
C          C       0.39677   0.76783   0.74999   0.0000000000
C          C       0.80442   0.39450   0.74999   0.0000000000
C          C       0.76783   0.37105   0.74999   0.0000000000
C          C       0.60550   0.40991   0.74999   0.0000000000
C          C       0.62895   0.39677   0.74999   0.0000000000
C          C       0.59009   0.19559   0.74999   0.0000000000
C          C       0.60323   0.23217   0.74999   0.0000000000
H          H       0.17913   0.61572   0.74999   0.0000000000
H          H       0.23913   0.65475   0.74999   0.0000000000
H          H       0.38428   0.56340   0.74999   0.0000000000
H          H       0.34525   0.58438   0.74999   0.0000000000
H          H       0.43660   0.82087   0.74999   0.0000000000
H          H       0.41562   0.76087   0.74999   0.0000000000
H          H       0.82087   0.38428   0.74999   0.0000000000
H          H       0.76087   0.34525   0.74999   0.0000000000
H          H       0.61572   0.43660   0.74999   0.0000000000
H          H       0.65475   0.41562   0.74999   0.0000000000
H          H       0.56340   0.17913   0.74999   0.0000000000
H          H       0.58438   0.23913   0.74999   0.0000000000
C          C       0.35053   0.79395   0.74999   0.0000000000
C          C       0.33773   0.75739   0.74999   0.0000000000
C          C       0.20606   0.55658   0.74999   0.0000000000
C          C       0.24261   0.58034   0.74999   0.0000000000
C          C       0.44342   0.64947   0.74999   0.0000000000
C          C       0.41966   0.66227   0.74999   0.0000000000
C          C       0.64947   0.20606   0.74999   0.0000000000
C          C       0.66227   0.24261   0.74999   0.0000000000
C          C       0.79395   0.44342   0.74999   0.0000000000
C          C       0.75739   0.41966   0.74999   0.0000000000
C          C       0.55658   0.35053   0.74999   0.0000000000
C          C       0.58034   0.33773   0.74999   0.0000000000
H          H       0.33282   0.80268   0.74999   0.0000000000
H          H       0.31111   0.74237   0.74999   0.0000000000
H          H       0.19732   0.53014   0.74999   0.0000000000
H          H       0.25763   0.56873   0.74999   0.0000000000
H          H       0.46986   0.66718   0.74999   0.0000000000
H          H       0.43127   0.68889   0.74999   0.0000000000
H          H       0.66718   0.19732   0.74999   0.0000000000
H          H       0.68889   0.25763   0.74999   0.0000000000
H          H       0.80268   0.46986   0.74999   0.0000000000
H          H       0.74237   0.43127   0.74999   0.0000000000
H          H       0.53014   0.33282   0.74999   0.0000000000
H          H       0.56873   0.31111   0.74999   0.0000000000
C          C       0.34677   0.70467   0.74999   0.0000000000
C          C       0.29533   0.64210   0.74999   0.0000000000
C          C       0.35790   0.65323   0.74999   0.0000000000
C          C       0.38696   0.81822   0.74999   0.0000000000
C          C       0.18178   0.56874   0.74999   0.0000000000
C          C       0.43126   0.61304   0.74999   0.0000000000
C          C       0.36006   0.74230   0.74999   0.0000000000
C          C       0.25770   0.61776   0.74999   0.0000000000
C          C       0.38224   0.63994   0.74999   0.0000000000
C          C       0.36906   0.68976   0.74999   0.0000000000
C          C       0.31024   0.67930   0.74999   0.0000000000
C          C       0.32070   0.63094   0.74999   0.0000000000
C          C       0.65323   0.29533   0.74999   0.0000000000
C          C       0.70467   0.35790   0.74999   0.0000000000
C          C       0.64210   0.34677   0.74999   0.0000000000
C          C       0.61304   0.18178   0.74999   0.0000000000
C          C       0.81822   0.43126   0.74999   0.0000000000
C          C       0.56874   0.38696   0.74999   0.0000000000
C          C       0.63994   0.25770   0.74999   0.0000000000
C          C       0.74230   0.38224   0.74999   0.0000000000
C          C       0.61776   0.36006   0.74999   0.0000000000
C          C       0.63094   0.31024   0.74999   0.0000000000
C          C       0.68976   0.32070   0.74999   0.0000000000
C          C       0.67930   0.36906   0.74999   0.0000000000
H          H       0.29349   0.68849   0.74999   0.0000000000
H          H       0.31151   0.60500   0.74999   0.0000000000
H          H       0.39500   0.70651   0.74999   0.0000000000
H          H       0.70651   0.31151   0.74999   0.0000000000
H          H       0.68849   0.39500   0.74999   0.0000000000
H          H       0.60500   0.29349   0.74999   0.0000000000
