data_crystal

_cell_length_a    29.20890
_cell_length_b    29.20890
_cell_length_c    6.92820
_cell_angle_alpha 90.00000
_cell_angle_beta  90.00000
_cell_angle_gamma 120.00000

_space_group_name_Hall 'P 1'
_space_group_name_H-M_alt  'P 1'

loop_
_symmetry_equiv_pos_as_xyz
'x,y,z' 

loop_
_atom_site_label
_atom_site_type_symbol
_atom_site_fract_x
_atom_site_fract_y
_atom_site_fract_z
C          C       0.37018   0.59221   0.25000 
C          C       0.40779   0.77797   0.25000 
C          C       0.22203   0.62982   0.25000 
C          C       0.62982   0.40779   0.25000 
C          C       0.59221   0.22203   0.25000 
C          C       0.77797   0.37018   0.25000 
N          N       0.42124   0.60367   0.25000 
N          N       0.39633   0.81757   0.25000 
N          N       0.18243   0.57876   0.25000 
N          N       0.57876   0.39633   0.25000 
N          N       0.60367   0.18243   0.25000 
N          N       0.81757   0.42124   0.25000 
N          N       0.44035   0.57155   0.25000 
N          N       0.42845   0.86880   0.25000 
N          N       0.13120   0.55965   0.25000 
N          N       0.55965   0.42845   0.25000 
N          N       0.57155   0.13120   0.25000 
N          N       0.86880   0.44035   0.25000 
C          C       0.44933   0.45229   0.25000 
C          C       0.54771   0.99704   0.25000 
C          C       0.00296   0.55067   0.25000 
C          C       0.55067   0.54771   0.25000 
C          C       0.45229   0.00296   0.25000 
C          C       0.99704   0.44933   0.25000 
C          C       0.45384   0.50268   0.25000 
C          C       0.49732   0.95117   0.25000 
C          C       0.04883   0.54616   0.25000 
C          C       0.54616   0.49732   0.25000 
C          C       0.50268   0.04883   0.25000 
C          C       0.95117   0.45384   0.25000 
C          C       0.50300   0.54892   0.25000 
C          C       0.45108   0.95409   0.25000 
C          C       0.04591   0.49700   0.25000 
C          C       0.49700   0.45108   0.25000 
C          C       0.54892   0.04591   0.25000 
C          C       0.95409   0.50300   0.25000 
C          C       0.41565   0.51783   0.25000 
C          C       0.48217   0.89782   0.25000 
C          C       0.10218   0.58435   0.25000 
C          C       0.58435   0.48217   0.25000 
C          C       0.51783   0.10218   0.25000 
C          C       0.89782   0.41565   0.25000 
C          C       0.49325   0.59084   0.25000 
C          C       0.40916   0.90241   0.25000 
C          C       0.09759   0.50675   0.25000 
C          C       0.50675   0.40916   0.25000 
C          C       0.59084   0.09759   0.25000 
C          C       0.90241   0.49325   0.25000 
H          H       0.65773   0.44683   0.25000 
H          H       0.55317   0.21091   0.25000 
H          H       0.78909   0.34226   0.25000 
H          H       0.34226   0.55317   0.25000 
H          H       0.44683   0.78909   0.25000 
H          H       0.21091   0.65773   0.25000 
O          O       0.63296   0.51450   0.25000 
O          O       0.48550   0.11846   0.25000 
O          O       0.88154   0.36704   0.25000 
O          O       0.36704   0.48550   0.25000 
O          O       0.51450   0.88154   0.25000 
O          O       0.11846   0.63296   0.25000 
O          O       0.47155   0.36137   0.25000 
O          O       0.63863   0.11018   0.25000 
O          O       0.88981   0.52845   0.25000 
O          O       0.52845   0.63863   0.25000 
O          O       0.36137   0.88981   0.25000 
O          O       0.11018   0.47155   0.25000 
H          H       0.44725   0.64070   0.25000 
H          H       0.35930   0.80655   0.25000 
H          H       0.19345   0.55275   0.25000 
H          H       0.55275   0.35930   0.25000 
H          H       0.64070   0.19345   0.25000 
H          H       0.80655   0.44725   0.25000 
H          H       0.58663   0.58162   0.25000 
H          H       0.41838   0.00502   0.25000 
H          H       0.99498   0.41337   0.25000 
H          H       0.41337   0.41838   0.25000 
H          H       0.58162   0.99498   0.25000 
H          H       0.00502   0.58663   0.25000 
C          C       0.61195   0.31434   0.25000 
C          C       0.64716   0.36998   0.25000 
C          C       0.68566   0.29761   0.25000 
C          C       0.63002   0.27719   0.25000 
C          C       0.70239   0.38805   0.25000 
C          C       0.72281   0.35284   0.25000 
C          C       0.38805   0.68566   0.25000 
C          C       0.35284   0.63002   0.25000 
C          C       0.31434   0.70239   0.25000 
C          C       0.36998   0.72281   0.25000 
C          C       0.29761   0.61195   0.25000 
C          C       0.27719   0.64716   0.25000 
O          O       0.56296   0.29678   0.25000 
O          O       0.70322   0.26618   0.25000 
O          O       0.73382   0.43703   0.25000 
O          O       0.43703   0.70322   0.25000 
O          O       0.29678   0.73382   0.25000 
O          O       0.26618   0.56296   0.25000 
C          C       0.37018   0.59221   0.75000 
C          C       0.40779   0.77797   0.75000 
C          C       0.22203   0.62982   0.75000 
C          C       0.62982   0.40779   0.75000 
C          C       0.59221   0.22203   0.75000 
C          C       0.77797   0.37018   0.75000 
N          N       0.42124   0.60367   0.75000 
N          N       0.39633   0.81757   0.75000 
N          N       0.18243   0.57876   0.75000 
N          N       0.57876   0.39633   0.75000 
N          N       0.60367   0.18243   0.75000 
N          N       0.81757   0.42124   0.75000 
N          N       0.44035   0.57155   0.75000 
N          N       0.42845   0.86880   0.75000 
N          N       0.13120   0.55965   0.75000 
N          N       0.55965   0.42845   0.75000 
N          N       0.57155   0.13120   0.75000 
N          N       0.86880   0.44035   0.75000 
C          C       0.44933   0.45229   0.75000 
C          C       0.54771   0.99704   0.75000 
C          C       0.00296   0.55067   0.75000 
C          C       0.55067   0.54771   0.75000 
C          C       0.45229   0.00296   0.75000 
C          C       0.99704   0.44933   0.75000 
C          C       0.45384   0.50268   0.75000 
C          C       0.49732   0.95117   0.75000 
C          C       0.04883   0.54616   0.75000 
C          C       0.54616   0.49732   0.75000 
C          C       0.50268   0.04883   0.75000 
C          C       0.95117   0.45384   0.75000 
C          C       0.50300   0.54892   0.75000 
C          C       0.45108   0.95409   0.75000 
C          C       0.04591   0.49700   0.75000 
C          C       0.49700   0.45108   0.75000 
C          C       0.54892   0.04591   0.75000 
C          C       0.95409   0.50300   0.75000 
C          C       0.41565   0.51783   0.75000 
C          C       0.48217   0.89782   0.75000 
C          C       0.10218   0.58435   0.75000 
C          C       0.58435   0.48217   0.75000 
C          C       0.51783   0.10218   0.75000 
C          C       0.89782   0.41565   0.75000 
C          C       0.49325   0.59084   0.75000 
C          C       0.40916   0.90241   0.75000 
C          C       0.09759   0.50675   0.75000 
C          C       0.50675   0.40916   0.75000 
C          C       0.59084   0.09759   0.75000 
C          C       0.90241   0.49325   0.75000 
H          H       0.65773   0.44683   0.75000 
H          H       0.55317   0.21091   0.75000 
H          H       0.78909   0.34226   0.75000 
H          H       0.34226   0.55317   0.75000 
H          H       0.44683   0.78909   0.75000 
H          H       0.21091   0.65773   0.75000 
O          O       0.63296   0.51450   0.75000 
O          O       0.48550   0.11846   0.75000 
O          O       0.88154   0.36704   0.75000 
O          O       0.36704   0.48550   0.75000 
O          O       0.51450   0.88154   0.75000 
O          O       0.11846   0.63296   0.75000 
O          O       0.47155   0.36137   0.75000 
O          O       0.63863   0.11018   0.75000 
O          O       0.88981   0.52845   0.75000 
O          O       0.52845   0.63863   0.75000 
O          O       0.36137   0.88981   0.75000 
O          O       0.11018   0.47155   0.75000 
H          H       0.44725   0.64070   0.75000 
H          H       0.35930   0.80655   0.75000 
H          H       0.19345   0.55275   0.75000 
H          H       0.55275   0.35930   0.75000 
H          H       0.64070   0.19345   0.75000 
H          H       0.80655   0.44725   0.75000 
H          H       0.58663   0.58162   0.75000 
H          H       0.41838   0.00502   0.75000 
H          H       0.99498   0.41337   0.75000 
H          H       0.41337   0.41838   0.75000 
H          H       0.58162   0.99498   0.75000 
H          H       0.00502   0.58663   0.75000 
C          C       0.61195   0.31434   0.75000 
C          C       0.64716   0.36998   0.75000 
C          C       0.68566   0.29761   0.75000 
C          C       0.63002   0.27719   0.75000 
C          C       0.70239   0.38805   0.75000 
C          C       0.72281   0.35284   0.75000 
C          C       0.38805   0.68566   0.75000 
C          C       0.35284   0.63002   0.75000 
C          C       0.31434   0.70239   0.75000 
C          C       0.36998   0.72281   0.75000 
C          C       0.29761   0.61195   0.75000 
C          C       0.27719   0.64716   0.75000 
O          O       0.56296   0.29678   0.75000 
O          O       0.70322   0.26618   0.75000 
O          O       0.73382   0.43703   0.75000 
O          O       0.43703   0.70322   0.75000 
O          O       0.29678   0.73382   0.75000 
O          O       0.26618   0.56296   0.75000 
