data_crystal
 
_cell_length_a    40.93500
_cell_length_b    40.93500
_cell_length_c    3.25700
_cell_angle_alpha 90.00000
_cell_angle_beta  90.00000
_cell_angle_gamma 120.00000
 
_symmetry_space_group_name_Hall 'P 1'
_symmetry_space_group_name_H-M  'P 1'
 
loop_
_symmetry_equiv_pos_as_xyz
 'x,y,z' 
 
loop_
_atom_site_label
_atom_site_type_symbol
_atom_site_fract_x
_atom_site_fract_y
_atom_site_fract_z
_atom_site_charge
H          H       0.03684   0.57103   0.00000   0.0000000000
C          C       0.01907   0.54048   0.00000   0.0000000000
O          O       0.09491   0.57618   0.00000   0.0000000000
C          C       0.13023   0.58160   0.00000   0.0000000000
C          C       0.16163   0.61632   0.00000   0.0000000000
C          C       0.15656   0.64779   0.00000   0.0000000000
H          H       0.12810   0.64343   0.00000   0.0000000000
C          C       0.18824   0.68197   0.00000   0.0000000000
H          H       0.18859   0.70870   0.00000   0.0000000000
C          C       0.22266   0.68216   0.00000   0.0000000000
C          C       0.25439   0.71641   0.00000   0.0000000000
C          C       0.41977   0.61560   0.00000   0.0000000000
C          C       0.34911   0.57672   0.00000   0.0000000000
H          H       0.42897   0.46581   0.00000   0.0000000000
C          C       0.45952   0.47859   0.00000   0.0000000000
O          O       0.42382   0.51873   0.00000   0.0000000000
C          C       0.41840   0.54863   0.00000   0.0000000000
C          C       0.38368   0.54531   0.00000   0.0000000000
C          C       0.35221   0.50877   0.00000   0.0000000000
H          H       0.35657   0.48467   0.00000   0.0000000000
C          C       0.31803   0.50627   0.00000   0.0000000000
H          H       0.29130   0.47989   0.00000   0.0000000000
C          C       0.31784   0.54050   0.00000   0.0000000000
C          C       0.28359   0.53798   0.00000   0.0000000000
C          C       0.38440   0.80417   0.00000   0.0000000000
C          C       0.42328   0.77239   0.00000   0.0000000000
H          H       0.53419   0.96316   0.00000   0.0000000000
C          C       0.52141   0.98093   0.00000   0.0000000000
O          O       0.48127   0.90509   0.00000   0.0000000000
C          C       0.45137   0.86977   0.00000   0.0000000000
C          C       0.45469   0.83837   0.00000   0.0000000000
C          C       0.49123   0.84344   0.00000   0.0000000000
H          H       0.51533   0.87190   0.00000   0.0000000000
C          C       0.49373   0.81176   0.00000   0.0000000000
H          H       0.52011   0.81141   0.00000   0.0000000000
C          C       0.45950   0.77734   0.00000   0.0000000000
C          C       0.46202   0.74561   0.00000   0.0000000000
C          C       0.19583   0.58023   0.00000   0.0000000000
C          C       0.22761   0.65089   0.00000   0.0000000000
H          H       0.96316   0.42897   0.00000   0.0000000000
C          C       0.98093   0.45952   0.00000   0.0000000000
O          O       0.90509   0.42382   0.00000   0.0000000000
C          C       0.86977   0.41840   0.00000   0.0000000000
C          C       0.83837   0.38368   0.00000   0.0000000000
C          C       0.84344   0.35221   0.00000   0.0000000000
H          H       0.87190   0.35657   0.00000   0.0000000000
C          C       0.81176   0.31803   0.00000   0.0000000000
H          H       0.81141   0.29130   0.00000   0.0000000000
C          C       0.77734   0.31784   0.00000   0.0000000000
C          C       0.74561   0.28359   0.00000   0.0000000000
C          C       0.58023   0.38440   0.00000   0.0000000000
C          C       0.65089   0.42328   0.00000   0.0000000000
H          H       0.57103   0.53419   0.00000   0.0000000000
C          C       0.54048   0.52141   0.00000   0.0000000000
O          O       0.57618   0.48127   0.00000   0.0000000000
C          C       0.58160   0.45137   0.00000   0.0000000000
C          C       0.61632   0.45469   0.00000   0.0000000000
C          C       0.64779   0.49123   0.00000   0.0000000000
H          H       0.64343   0.51533   0.00000   0.0000000000
C          C       0.68197   0.49373   0.00000   0.0000000000
H          H       0.70870   0.52011   0.00000   0.0000000000
C          C       0.68216   0.45950   0.00000   0.0000000000
C          C       0.71641   0.46202   0.00000   0.0000000000
C          C       0.61560   0.19583   0.00000   0.0000000000
C          C       0.57672   0.22761   0.00000   0.0000000000
H          H       0.46581   0.03684   0.00000   0.0000000000
C          C       0.47859   0.01907   0.00000   0.0000000000
O          O       0.51873   0.09491   0.00000   0.0000000000
C          C       0.54863   0.13023   0.00000   0.0000000000
C          C       0.54531   0.16163   0.00000   0.0000000000
C          C       0.50877   0.15656   0.00000   0.0000000000
H          H       0.48467   0.12810   0.00000   0.0000000000
C          C       0.50627   0.18824   0.00000   0.0000000000
H          H       0.47989   0.18859   0.00000   0.0000000000
C          C       0.54050   0.22266   0.00000   0.0000000000
C          C       0.53798   0.25439   0.00000   0.0000000000
C          C       0.80417   0.41977   0.00000   0.0000000000
C          C       0.77239   0.34911   0.00000   0.0000000000
H          H       0.57103   0.03684   0.00000   0.0000000000
C          C       0.54048   0.01907   0.00000   0.0000000000
O          O       0.57618   0.09491   0.00000   0.0000000000
C          C       0.58160   0.13023   0.00000   0.0000000000
C          C       0.61632   0.16163   0.00000   0.0000000000
C          C       0.64779   0.15656   0.00000   0.0000000000
H          H       0.64343   0.12810   0.00000   0.0000000000
C          C       0.68197   0.18824   0.00000   0.0000000000
H          H       0.70870   0.18859   0.00000   0.0000000000
C          C       0.68216   0.22266   0.00000   0.0000000000
C          C       0.71641   0.25439   0.00000   0.0000000000
C          C       0.61560   0.41977   0.00000   0.0000000000
C          C       0.57672   0.34911   0.00000   0.0000000000
H          H       0.46581   0.42897   0.00000   0.0000000000
C          C       0.47859   0.45952   0.00000   0.0000000000
O          O       0.51873   0.42382   0.00000   0.0000000000
C          C       0.54863   0.41840   0.00000   0.0000000000
C          C       0.54531   0.38368   0.00000   0.0000000000
C          C       0.50877   0.35221   0.00000   0.0000000000
H          H       0.48467   0.35657   0.00000   0.0000000000
C          C       0.50627   0.31803   0.00000   0.0000000000
H          H       0.47989   0.29130   0.00000   0.0000000000
C          C       0.54050   0.31784   0.00000   0.0000000000
C          C       0.53798   0.28359   0.00000   0.0000000000
C          C       0.80417   0.38440   0.00000   0.0000000000
C          C       0.77239   0.42328   0.00000   0.0000000000
H          H       0.96316   0.53419   0.00000   0.0000000000
C          C       0.98093   0.52141   0.00000   0.0000000000
O          O       0.90509   0.48127   0.00000   0.0000000000
C          C       0.86977   0.45137   0.00000   0.0000000000
C          C       0.83837   0.45469   0.00000   0.0000000000
C          C       0.84344   0.49123   0.00000   0.0000000000
H          H       0.87190   0.51533   0.00000   0.0000000000
C          C       0.81176   0.49373   0.00000   0.0000000000
H          H       0.81141   0.52011   0.00000   0.0000000000
C          C       0.77734   0.45950   0.00000   0.0000000000
C          C       0.74561   0.46202   0.00000   0.0000000000
C          C       0.58023   0.19583   0.00000   0.0000000000
C          C       0.65089   0.22761   0.00000   0.0000000000
H          H       0.42897   0.96316   0.00000   0.0000000000
C          C       0.45952   0.98093   0.00000   0.0000000000
O          O       0.42382   0.90509   0.00000   0.0000000000
C          C       0.41840   0.86977   0.00000   0.0000000000
C          C       0.38368   0.83837   0.00000   0.0000000000
C          C       0.35221   0.84344   0.00000   0.0000000000
H          H       0.35657   0.87190   0.00000   0.0000000000
C          C       0.31803   0.81176   0.00000   0.0000000000
H          H       0.29130   0.81141   0.00000   0.0000000000
C          C       0.31784   0.77734   0.00000   0.0000000000
C          C       0.28359   0.74561   0.00000   0.0000000000
C          C       0.38440   0.58023   0.00000   0.0000000000
C          C       0.42328   0.65089   0.00000   0.0000000000
H          H       0.53419   0.57103   0.00000   0.0000000000
C          C       0.52141   0.54048   0.00000   0.0000000000
O          O       0.48127   0.57618   0.00000   0.0000000000
C          C       0.45137   0.58160   0.00000   0.0000000000
C          C       0.45469   0.61632   0.00000   0.0000000000
C          C       0.49123   0.64779   0.00000   0.0000000000
H          H       0.51533   0.64343   0.00000   0.0000000000
C          C       0.49373   0.68197   0.00000   0.0000000000
H          H       0.52011   0.70870   0.00000   0.0000000000
C          C       0.45950   0.68216   0.00000   0.0000000000
C          C       0.46202   0.71641   0.00000   0.0000000000
C          C       0.19583   0.61560   0.00000   0.0000000000
C          C       0.22761   0.57672   0.00000   0.0000000000
H          H       0.03684   0.46581   0.00000   0.0000000000
C          C       0.01907   0.47859   0.00000   0.0000000000
O          O       0.09491   0.51873   0.00000   0.0000000000
C          C       0.13023   0.54863   0.00000   0.0000000000
C          C       0.16163   0.54531   0.00000   0.0000000000
C          C       0.15656   0.50877   0.00000   0.0000000000
H          H       0.12810   0.48467   0.00000   0.0000000000
C          C       0.18824   0.50627   0.00000   0.0000000000
H          H       0.18859   0.47989   0.00000   0.0000000000
C          C       0.22266   0.54050   0.00000   0.0000000000
C          C       0.25439   0.53798   0.00000   0.0000000000
C          C       0.41977   0.80417   0.00000   0.0000000000
C          C       0.34911   0.77239   0.00000   0.0000000000
C          C       0.03497   0.51748   0.00000   0.0000000000
B          B       0.07503   0.53751   0.00000   0.0000000000
C          C       0.48252   0.51748   0.00000   0.0000000000
B          B       0.46248   0.53751   0.00000   0.0000000000
C          C       0.48252   0.96503   0.00000   0.0000000000
B          B       0.46248   0.92497   0.00000   0.0000000000
C          C       0.96503   0.48252   0.00000   0.0000000000
B          B       0.92497   0.46248   0.00000   0.0000000000
C          C       0.51748   0.48252   0.00000   0.0000000000
B          B       0.53751   0.46248   0.00000   0.0000000000
C          C       0.51748   0.03497   0.00000   0.0000000000
B          B       0.53751   0.07503   0.00000   0.0000000000
H          H       0.39936   0.65557   0.00000   0.0000000000
H          H       0.34443   0.74379   0.00000   0.0000000000
H          H       0.25621   0.60064   0.00000   0.0000000000
H          H       0.60064   0.34443   0.00000   0.0000000000
H          H       0.65557   0.25621   0.00000   0.0000000000
H          H       0.74379   0.39936   0.00000   0.0000000000
H          H       0.65557   0.39936   0.00000   0.0000000000
H          H       0.74379   0.34443   0.00000   0.0000000000
H          H       0.60064   0.25621   0.00000   0.0000000000
H          H       0.34443   0.60064   0.00000   0.0000000000
H          H       0.25621   0.65557   0.00000   0.0000000000
H          H       0.39936   0.74379   0.00000   0.0000000000
