data_crystal
 
_cell_length_a    35.52800
_cell_length_b    35.52800
_cell_length_c    3.39800
_cell_angle_alpha 90.00000
_cell_angle_beta  90.00000
_cell_angle_gamma 120.00000
 
_symmetry_space_group_name_Hall 'P 1'
_symmetry_space_group_name_H-M  'P 1'
 
loop_
_symmetry_equiv_pos_as_xyz
 'x,y,z' 
 
loop_
_atom_site_label
_atom_site_type_symbol
_atom_site_fract_x
_atom_site_fract_y
_atom_site_fract_z
_atom_site_charge
H          H       0.03993   0.58096   0.00000   0.0000000000
C          C       0.02280   0.54563   0.00000   0.0000000000
O          O       0.12285   0.59611   0.00000   0.0000000000
C          C       0.16443   0.60164   0.00000   0.0000000000
C          C       0.20323   0.64152   0.00000   0.0000000000
H          H       0.20249   0.67173   0.00000   0.0000000000
C          C       0.24298   0.64154   0.00000   0.0000000000
C          C       0.28330   0.68267   0.00000   0.0000000000
H          H       0.41904   0.45897   0.00000   0.0000000000
C          C       0.45437   0.47717   0.00000   0.0000000000
O          O       0.40389   0.52674   0.00000   0.0000000000
C          C       0.39836   0.56279   0.00000   0.0000000000
C          C       0.35848   0.56171   0.00000   0.0000000000
H          H       0.32827   0.53076   0.00000   0.0000000000
C          C       0.35846   0.60144   0.00000   0.0000000000
C          C       0.31733   0.60063   0.00000   0.0000000000
H          H       0.54103   0.96007   0.00000   0.0000000000
C          C       0.52283   0.97720   0.00000   0.0000000000
O          O       0.47326   0.87715   0.00000   0.0000000000
C          C       0.43721   0.83557   0.00000   0.0000000000
C          C       0.43829   0.79677   0.00000   0.0000000000
H          H       0.46924   0.79751   0.00000   0.0000000000
C          C       0.39856   0.75702   0.00000   0.0000000000
C          C       0.39937   0.71670   0.00000   0.0000000000
H          H       0.96007   0.41904   0.00000   0.0000000000
C          C       0.97720   0.45437   0.00000   0.0000000000
O          O       0.87715   0.40389   0.00000   0.0000000000
C          C       0.83557   0.39836   0.00000   0.0000000000
C          C       0.79677   0.35848   0.00000   0.0000000000
H          H       0.79751   0.32827   0.00000   0.0000000000
C          C       0.75702   0.35846   0.00000   0.0000000000
C          C       0.71670   0.31733   0.00000   0.0000000000
H          H       0.58096   0.54103   0.00000   0.0000000000
C          C       0.54563   0.52283   0.00000   0.0000000000
O          O       0.59611   0.47326   0.00000   0.0000000000
C          C       0.60164   0.43721   0.00000   0.0000000000
C          C       0.64152   0.43829   0.00000   0.0000000000
H          H       0.67173   0.46924   0.00000   0.0000000000
C          C       0.64154   0.39856   0.00000   0.0000000000
C          C       0.68267   0.39937   0.00000   0.0000000000
H          H       0.45897   0.03993   0.00000   0.0000000000
C          C       0.47717   0.02280   0.00000   0.0000000000
O          O       0.52674   0.12285   0.00000   0.0000000000
C          C       0.56279   0.16443   0.00000   0.0000000000
C          C       0.56171   0.20323   0.00000   0.0000000000
H          H       0.53076   0.20249   0.00000   0.0000000000
C          C       0.60144   0.24298   0.00000   0.0000000000
C          C       0.60063   0.28330   0.00000   0.0000000000
H          H       0.58096   0.03993   0.00000   0.0000000000
C          C       0.54563   0.02280   0.00000   0.0000000000
O          O       0.59611   0.12285   0.00000   0.0000000000
C          C       0.60164   0.16443   0.00000   0.0000000000
C          C       0.64152   0.20323   0.00000   0.0000000000
H          H       0.67173   0.20249   0.00000   0.0000000000
C          C       0.64154   0.24298   0.00000   0.0000000000
C          C       0.68267   0.28330   0.00000   0.0000000000
H          H       0.45897   0.41904   0.00000   0.0000000000
C          C       0.47717   0.45437   0.00000   0.0000000000
O          O       0.52674   0.40389   0.00000   0.0000000000
C          C       0.56279   0.39836   0.00000   0.0000000000
C          C       0.56171   0.35848   0.00000   0.0000000000
H          H       0.53076   0.32827   0.00000   0.0000000000
C          C       0.60144   0.35846   0.00000   0.0000000000
C          C       0.60063   0.31733   0.00000   0.0000000000
H          H       0.96007   0.54103   0.00000   0.0000000000
C          C       0.97720   0.52283   0.00000   0.0000000000
O          O       0.87715   0.47326   0.00000   0.0000000000
C          C       0.83557   0.43721   0.00000   0.0000000000
C          C       0.79677   0.43829   0.00000   0.0000000000
H          H       0.79751   0.46924   0.00000   0.0000000000
C          C       0.75702   0.39856   0.00000   0.0000000000
C          C       0.71670   0.39937   0.00000   0.0000000000
H          H       0.41904   0.96007   0.00000   0.0000000000
C          C       0.45437   0.97720   0.00000   0.0000000000
O          O       0.40389   0.87715   0.00000   0.0000000000
C          C       0.39836   0.83557   0.00000   0.0000000000
C          C       0.35848   0.79677   0.00000   0.0000000000
H          H       0.32827   0.79751   0.00000   0.0000000000
C          C       0.35846   0.75702   0.00000   0.0000000000
C          C       0.31733   0.71670   0.00000   0.0000000000
H          H       0.54103   0.58096   0.00000   0.0000000000
C          C       0.52283   0.54563   0.00000   0.0000000000
O          O       0.47326   0.59611   0.00000   0.0000000000
C          C       0.43721   0.60164   0.00000   0.0000000000
C          C       0.43829   0.64152   0.00000   0.0000000000
H          H       0.46924   0.67173   0.00000   0.0000000000
C          C       0.39856   0.64154   0.00000   0.0000000000
C          C       0.39937   0.68267   0.00000   0.0000000000
H          H       0.03993   0.45897   0.00000   0.0000000000
C          C       0.02280   0.47717   0.00000   0.0000000000
O          O       0.12285   0.52674   0.00000   0.0000000000
C          C       0.16443   0.56279   0.00000   0.0000000000
C          C       0.20323   0.56171   0.00000   0.0000000000
H          H       0.20249   0.53076   0.00000   0.0000000000
C          C       0.24298   0.60144   0.00000   0.0000000000
C          C       0.28330   0.60063   0.00000   0.0000000000
C          C       0.04583   0.52291   0.00000   0.0000000000
B          B       0.09679   0.54839   0.00000   0.0000000000
C          C       0.47708   0.52291   0.00000   0.0000000000
B          B       0.45160   0.54839   0.00000   0.0000000000
C          C       0.47708   0.95417   0.00000   0.0000000000
B          B       0.45160   0.90321   0.00000   0.0000000000
C          C       0.95417   0.47708   0.00000   0.0000000000
B          B       0.90321   0.45160   0.00000   0.0000000000
C          C       0.52292   0.47708   0.00000   0.0000000000
B          B       0.54839   0.45160   0.00000   0.0000000000
C          C       0.52292   0.04583   0.00000   0.0000000000
B          B       0.54839   0.09679   0.00000   0.0000000000
