data_crystal

_cell_length_a    40.62200
_cell_length_b    40.62200
_cell_length_c    7.08760
_cell_angle_alpha 90.00000
_cell_angle_beta  90.00000
_cell_angle_gamma 120.00000

_space_group_name_Hall 'P 1'
_space_group_name_H-M_alt  'P 1'

loop_
_symmetry_equiv_pos_as_xyz
'x,y,z' 

loop_
_atom_site_label
_atom_site_type_symbol
_atom_site_fract_x
_atom_site_fract_y
_atom_site_fract_z
C          C       0.85670   0.44529   0.25000 
C          C       0.55471   0.41142   0.25000 
C          C       0.58858   0.14329   0.25000 
C          C       0.14329   0.55471   0.25000 
C          C       0.44529   0.58858   0.25000 
C          C       0.41142   0.85670   0.25000 
C          C       0.44529   0.85670   0.25000 
C          C       0.41142   0.55471   0.25000 
C          C       0.14329   0.58858   0.25000 
C          C       0.55471   0.14329   0.25000 
C          C       0.58858   0.44529   0.25000 
C          C       0.85670   0.41142   0.25000 
C          C       0.82299   0.44627   0.25000 
C          C       0.55373   0.37672   0.25000 
C          C       0.62328   0.17701   0.25000 
C          C       0.17701   0.55373   0.25000 
C          C       0.44627   0.62328   0.25000 
C          C       0.37672   0.82299   0.25000 
C          C       0.44627   0.82299   0.25000 
C          C       0.37672   0.55373   0.25000 
C          C       0.17701   0.62328   0.25000 
C          C       0.55373   0.17701   0.25000 
C          C       0.62328   0.44627   0.25000 
C          C       0.82299   0.37672   0.25000 
C          C       0.75321   0.41241   0.25000 
C          C       0.58759   0.34080   0.25000 
C          C       0.65919   0.24678   0.25000 
C          C       0.24678   0.58759   0.25000 
C          C       0.41241   0.65919   0.25000 
C          C       0.34080   0.75321   0.25000 
C          C       0.41241   0.75321   0.25000 
C          C       0.34080   0.58759   0.25000 
C          C       0.24678   0.65919   0.25000 
C          C       0.58759   0.24678   0.25000 
C          C       0.65919   0.41241   0.25000 
C          C       0.75321   0.34080   0.25000 
C          C       0.72370   0.41269   0.25000 
C          C       0.58731   0.31101   0.25000 
C          C       0.68899   0.27630   0.25000 
C          C       0.27630   0.58731   0.25000 
C          C       0.41269   0.68899   0.25000 
C          C       0.31101   0.72370   0.25000 
C          C       0.41269   0.72370   0.25000 
C          C       0.31101   0.58731   0.25000 
C          C       0.27630   0.68899   0.25000 
C          C       0.58731   0.27630   0.25000 
C          C       0.68899   0.41269   0.25000 
C          C       0.72370   0.31101   0.25000 
C          C       0.78833   0.41165   0.25000 
C          C       0.58835   0.37668   0.25000 
C          C       0.62332   0.21167   0.25000 
C          C       0.21167   0.58835   0.25000 
C          C       0.41165   0.62332   0.25000 
C          C       0.37668   0.78833   0.25000 
C          C       0.41165   0.78833   0.25000 
C          C       0.37668   0.58835   0.25000 
C          C       0.21167   0.62332   0.25000 
C          C       0.58835   0.21167   0.25000 
C          C       0.62332   0.41165   0.25000 
C          C       0.78833   0.37668   0.25000 
B          B       0.91547   0.45774   0.25000 
B          B       0.54226   0.45774   0.25000 
B          B       0.54226   0.08453   0.25000 
B          B       0.08453   0.54226   0.25000 
B          B       0.45774   0.54226   0.25000 
B          B       0.45774   0.91547   0.25000 
C          C       0.03998   0.51999   0.25000 
C          C       0.48001   0.51999   0.25000 
C          C       0.48001   0.96002   0.25000 
C          C       0.96002   0.48001   0.25000 
C          C       0.51999   0.48001   0.25000 
C          C       0.51999   0.03998   0.25000 
C          C       0.01988   0.53979   0.25000 
C          C       0.46021   0.48008   0.25000 
C          C       0.51992   0.98012   0.25000 
C          C       0.98012   0.46021   0.25000 
C          C       0.53979   0.51992   0.25000 
C          C       0.48008   0.01988   0.25000 
C          C       0.53979   0.01988   0.25000 
C          C       0.48008   0.46021   0.25000 
C          C       0.98012   0.51992   0.25000 
C          C       0.46021   0.98012   0.25000 
C          C       0.51992   0.53979   0.25000 
C          C       0.01988   0.48008   0.25000 
H          H       0.03504   0.57065   0.25000 
H          H       0.42935   0.46438   0.25000 
H          H       0.53562   0.96496   0.25000 
H          H       0.96496   0.42935   0.25000 
H          H       0.57065   0.53562   0.25000 
H          H       0.46438   0.03504   0.25000 
H          H       0.57065   0.03504   0.25000 
H          H       0.46438   0.42935   0.25000 
H          H       0.96496   0.53562   0.25000 
H          H       0.42935   0.96496   0.25000 
H          H       0.53562   0.57065   0.25000 
H          H       0.03504   0.46438   0.25000 
H          H       0.82398   0.47338   0.25000 
H          H       0.52662   0.35060   0.25000 
H          H       0.64940   0.17602   0.25000 
H          H       0.17602   0.52662   0.25000 
H          H       0.47338   0.64940   0.25000 
H          H       0.35060   0.82398   0.25000 
H          H       0.47338   0.82398   0.25000 
H          H       0.35060   0.52662   0.25000 
H          H       0.17602   0.64940   0.25000 
H          H       0.52662   0.17602   0.25000 
H          H       0.64940   0.47338   0.25000 
H          H       0.82398   0.35060   0.25000 
O          O       0.89285   0.47671   0.25000 
O          O       0.52329   0.41614   0.25000 
O          O       0.58386   0.10715   0.25000 
O          O       0.10715   0.52329   0.25000 
O          O       0.47671   0.58386   0.25000 
O          O       0.41614   0.89285   0.25000 
O          O       0.47671   0.89285   0.25000 
O          O       0.41614   0.52329   0.25000 
O          O       0.10715   0.58386   0.25000 
O          O       0.52329   0.10715   0.25000 
O          O       0.58386   0.47671   0.25000 
O          O       0.89285   0.41614   0.25000 
C          C       0.85670   0.44529   0.75000 
C          C       0.55471   0.41142   0.75000 
C          C       0.58858   0.14329   0.75000 
C          C       0.14329   0.55471   0.75000 
C          C       0.44529   0.58858   0.75000 
C          C       0.41142   0.85670   0.75000 
C          C       0.44529   0.85670   0.75000 
C          C       0.41142   0.55471   0.75000 
C          C       0.14329   0.58858   0.75000 
C          C       0.55471   0.14329   0.75000 
C          C       0.58858   0.44529   0.75000 
C          C       0.85670   0.41142   0.75000 
C          C       0.82299   0.44627   0.75000 
C          C       0.55373   0.37672   0.75000 
C          C       0.62328   0.17701   0.75000 
C          C       0.17701   0.55373   0.75000 
C          C       0.44627   0.62328   0.75000 
C          C       0.37672   0.82299   0.75000 
C          C       0.44627   0.82299   0.75000 
C          C       0.37672   0.55373   0.75000 
C          C       0.17701   0.62328   0.75000 
C          C       0.55373   0.17701   0.75000 
C          C       0.62328   0.44627   0.75000 
C          C       0.82299   0.37672   0.75000 
C          C       0.75321   0.41241   0.75000 
C          C       0.58759   0.34080   0.75000 
C          C       0.65919   0.24678   0.75000 
C          C       0.24678   0.58759   0.75000 
C          C       0.41241   0.65919   0.75000 
C          C       0.34080   0.75321   0.75000 
C          C       0.41241   0.75321   0.75000 
C          C       0.34080   0.58759   0.75000 
C          C       0.24678   0.65919   0.75000 
C          C       0.58759   0.24678   0.75000 
C          C       0.65919   0.41241   0.75000 
C          C       0.75321   0.34080   0.75000 
C          C       0.72370   0.41269   0.75000 
C          C       0.58731   0.31101   0.75000 
C          C       0.68899   0.27630   0.75000 
C          C       0.27630   0.58731   0.75000 
C          C       0.41269   0.68899   0.75000 
C          C       0.31101   0.72370   0.75000 
C          C       0.41269   0.72370   0.75000 
C          C       0.31101   0.58731   0.75000 
C          C       0.27630   0.68899   0.75000 
C          C       0.58731   0.27630   0.75000 
C          C       0.68899   0.41269   0.75000 
C          C       0.72370   0.31101   0.75000 
C          C       0.78833   0.41165   0.75000 
C          C       0.58835   0.37668   0.75000 
C          C       0.62332   0.21167   0.75000 
C          C       0.21167   0.58835   0.75000 
C          C       0.41165   0.62332   0.75000 
C          C       0.37668   0.78833   0.75000 
C          C       0.41165   0.78833   0.75000 
C          C       0.37668   0.58835   0.75000 
C          C       0.21167   0.62332   0.75000 
C          C       0.58835   0.21167   0.75000 
C          C       0.62332   0.41165   0.75000 
C          C       0.78833   0.37668   0.75000 
B          B       0.91547   0.45774   0.75000 
B          B       0.54226   0.45774   0.75000 
B          B       0.54226   0.08453   0.75000 
B          B       0.08453   0.54226   0.75000 
B          B       0.45774   0.54226   0.75000 
B          B       0.45774   0.91547   0.75000 
C          C       0.03998   0.51999   0.75000 
C          C       0.48001   0.51999   0.75000 
C          C       0.48001   0.96002   0.75000 
C          C       0.96002   0.48001   0.75000 
C          C       0.51999   0.48001   0.75000 
C          C       0.51999   0.03998   0.75000 
C          C       0.01988   0.53979   0.75000 
C          C       0.46021   0.48008   0.75000 
C          C       0.51992   0.98012   0.75000 
C          C       0.98012   0.46021   0.75000 
C          C       0.53979   0.51992   0.75000 
C          C       0.48008   0.01988   0.75000 
C          C       0.53979   0.01988   0.75000 
C          C       0.48008   0.46021   0.75000 
C          C       0.98012   0.51992   0.75000 
C          C       0.46021   0.98012   0.75000 
C          C       0.51992   0.53979   0.75000 
C          C       0.01988   0.48008   0.75000 
H          H       0.03504   0.57065   0.75000 
H          H       0.42935   0.46438   0.75000 
H          H       0.53562   0.96496   0.75000 
H          H       0.96496   0.42935   0.75000 
H          H       0.57065   0.53562   0.75000 
H          H       0.46438   0.03504   0.75000 
H          H       0.57065   0.03504   0.75000 
H          H       0.46438   0.42935   0.75000 
H          H       0.96496   0.53562   0.75000 
H          H       0.42935   0.96496   0.75000 
H          H       0.53562   0.57065   0.75000 
H          H       0.03504   0.46438   0.75000 
H          H       0.82398   0.47338   0.75000 
H          H       0.52662   0.35060   0.75000 
H          H       0.64940   0.17602   0.75000 
H          H       0.17602   0.52662   0.75000 
H          H       0.47338   0.64940   0.75000 
H          H       0.35060   0.82398   0.75000 
H          H       0.47338   0.82398   0.75000 
H          H       0.35060   0.52662   0.75000 
H          H       0.17602   0.64940   0.75000 
H          H       0.52662   0.17602   0.75000 
H          H       0.64940   0.47338   0.75000 
H          H       0.82398   0.35060   0.75000 
O          O       0.89285   0.47671   0.75000 
O          O       0.52329   0.41614   0.75000 
O          O       0.58386   0.10715   0.75000 
O          O       0.10715   0.52329   0.75000 
O          O       0.47671   0.58386   0.75000 
O          O       0.41614   0.89285   0.75000 
O          O       0.47671   0.89285   0.75000 
O          O       0.41614   0.52329   0.75000 
O          O       0.10715   0.58386   0.75000 
O          O       0.52329   0.10715   0.75000 
O          O       0.58386   0.47671   0.75000 
O          O       0.89285   0.41614   0.75000 
