data_crystal

_cell_length_a    35.58290
_cell_length_b    35.58290
_cell_length_c    6.80000
_cell_angle_alpha 90.00000
_cell_angle_beta  90.00000
_cell_angle_gamma 120.00000

_space_group_name_Hall 'P 1'
_space_group_name_H-M_alt  'P 1'

loop_
_symmetry_equiv_pos_as_xyz
'x,y,z' 

loop_
_atom_site_label
_atom_site_type_symbol
_atom_site_fract_x
_atom_site_fract_y
_atom_site_fract_z
O          O       0.40378   0.52696   0.25000 
O          O       0.47304   0.59622   0.25000 
C          C       0.39826   0.56295   0.25000 
C          C       0.43705   0.60174   0.25000 
C          C       0.35844   0.56187   0.25000 
C          C       0.43813   0.64156   0.25000 
C          C       0.35842   0.60154   0.25000 
C          C       0.39846   0.64158   0.25000 
C          C       0.31735   0.60073   0.25000 
C          C       0.39927   0.68265   0.25000 
B          B       0.45142   0.54858   0.25000 
C          C       0.52294   0.47706   0.25000 
C          C       0.47732   0.45459   0.25000 
C          C       0.54541   0.52268   0.25000 
H          H       0.45927   0.41939   0.25000 
H          H       0.58061   0.54073   0.25000 
H          H       0.32828   0.53097   0.25000 
H          H       0.46903   0.67172   0.25000 
O          O       0.47304   0.87683   0.25000 
O          O       0.40378   0.87683   0.25000 
C          C       0.43705   0.83531   0.25000 
C          C       0.39826   0.83531   0.25000 
C          C       0.43813   0.79657   0.25000 
C          C       0.35844   0.79657   0.25000 
C          C       0.39846   0.75688   0.25000 
C          C       0.35842   0.75688   0.25000 
C          C       0.39927   0.71662   0.25000 
C          C       0.31735   0.71662   0.25000 
B          B       0.45142   0.90284   0.25000 
H          H       0.46903   0.79731   0.25000 
H          H       0.32828   0.79731   0.25000 
O          O       0.12317   0.59622   0.25000 
O          O       0.12317   0.52696   0.25000 
C          C       0.16469   0.60174   0.25000 
C          C       0.16469   0.56295   0.25000 
C          C       0.20343   0.64156   0.25000 
C          C       0.20343   0.56187   0.25000 
C          C       0.24312   0.64158   0.25000 
C          C       0.24312   0.60154   0.25000 
C          C       0.28338   0.68265   0.25000 
C          C       0.28338   0.60073   0.25000 
B          B       0.09716   0.54858   0.25000 
H          H       0.20269   0.67172   0.25000 
H          H       0.20269   0.53097   0.25000 
O          O       0.59622   0.47304   0.25000 
O          O       0.52696   0.40378   0.25000 
C          C       0.60174   0.43705   0.25000 
C          C       0.56295   0.39826   0.25000 
C          C       0.64156   0.43813   0.25000 
C          C       0.56187   0.35844   0.25000 
C          C       0.64158   0.39846   0.25000 
C          C       0.60154   0.35842   0.25000 
C          C       0.68265   0.39927   0.25000 
C          C       0.60073   0.31735   0.25000 
B          B       0.54858   0.45142   0.25000 
C          C       0.47706   0.52294   0.25000 
C          C       0.52268   0.54541   0.25000 
C          C       0.45459   0.47732   0.25000 
H          H       0.54073   0.58061   0.25000 
H          H       0.41939   0.45927   0.25000 
H          H       0.67172   0.46903   0.25000 
H          H       0.53097   0.32828   0.25000 
O          O       0.52696   0.12317   0.25000 
O          O       0.59622   0.12317   0.25000 
C          C       0.56295   0.16469   0.25000 
C          C       0.60174   0.16469   0.25000 
C          C       0.56187   0.20343   0.25000 
C          C       0.64156   0.20343   0.25000 
C          C       0.60154   0.24312   0.25000 
C          C       0.64158   0.24312   0.25000 
C          C       0.60073   0.28338   0.25000 
C          C       0.68265   0.28338   0.25000 
B          B       0.54858   0.09716   0.25000 
H          H       0.53097   0.20269   0.25000 
H          H       0.67172   0.20269   0.25000 
O          O       0.87683   0.40378   0.25000 
O          O       0.87683   0.47304   0.25000 
C          C       0.83531   0.39826   0.25000 
C          C       0.83531   0.43705   0.25000 
C          C       0.79657   0.35844   0.25000 
C          C       0.79657   0.43813   0.25000 
C          C       0.75688   0.35842   0.25000 
C          C       0.75688   0.39846   0.25000 
C          C       0.71662   0.31735   0.25000 
C          C       0.71662   0.39927   0.25000 
B          B       0.90284   0.45142   0.25000 
H          H       0.79731   0.32828   0.25000 
H          H       0.79731   0.46903   0.25000 
C          C       0.52294   0.04588   0.25000 
C          C       0.54541   0.02272   0.25000 
C          C       0.47732   0.02272   0.25000 
H          H       0.58061   0.03988   0.25000 
H          H       0.45927   0.03988   0.25000 
C          C       0.95412   0.47706   0.25000 
C          C       0.97728   0.52268   0.25000 
C          C       0.97728   0.45459   0.25000 
H          H       0.96012   0.54073   0.25000 
H          H       0.96012   0.41939   0.25000 
C          C       0.47706   0.95412   0.25000 
C          C       0.45459   0.97728   0.25000 
C          C       0.52268   0.97728   0.25000 
H          H       0.41939   0.96012   0.25000 
H          H       0.54073   0.96012   0.25000 
C          C       0.04588   0.52294   0.25000 
C          C       0.02272   0.47732   0.25000 
C          C       0.02272   0.54541   0.25000 
H          H       0.03988   0.45927   0.25000 
H          H       0.03988   0.58061   0.25000 
O          O       0.40378   0.52696   0.75000 
O          O       0.47304   0.59622   0.75000 
C          C       0.39826   0.56295   0.75000 
C          C       0.43705   0.60174   0.75000 
C          C       0.35844   0.56187   0.75000 
C          C       0.43813   0.64156   0.75000 
C          C       0.35842   0.60154   0.75000 
C          C       0.39846   0.64158   0.75000 
C          C       0.31735   0.60073   0.75000 
C          C       0.39927   0.68265   0.75000 
B          B       0.45142   0.54858   0.75000 
C          C       0.52294   0.47706   0.75000 
C          C       0.47732   0.45459   0.75000 
C          C       0.54541   0.52268   0.75000 
H          H       0.45927   0.41939   0.75000 
H          H       0.58061   0.54073   0.75000 
H          H       0.32828   0.53097   0.75000 
H          H       0.46903   0.67172   0.75000 
O          O       0.47304   0.87683   0.75000 
O          O       0.40378   0.87683   0.75000 
C          C       0.43705   0.83531   0.75000 
C          C       0.39826   0.83531   0.75000 
C          C       0.43813   0.79657   0.75000 
C          C       0.35844   0.79657   0.75000 
C          C       0.39846   0.75688   0.75000 
C          C       0.35842   0.75688   0.75000 
C          C       0.39927   0.71662   0.75000 
C          C       0.31735   0.71662   0.75000 
B          B       0.45142   0.90284   0.75000 
H          H       0.46903   0.79731   0.75000 
H          H       0.32828   0.79731   0.75000 
O          O       0.12317   0.59622   0.75000 
O          O       0.12317   0.52696   0.75000 
C          C       0.16469   0.60174   0.75000 
C          C       0.16469   0.56295   0.75000 
C          C       0.20343   0.64156   0.75000 
C          C       0.20343   0.56187   0.75000 
C          C       0.24312   0.64158   0.75000 
C          C       0.24312   0.60154   0.75000 
C          C       0.28338   0.68265   0.75000 
C          C       0.28338   0.60073   0.75000 
B          B       0.09716   0.54858   0.75000 
H          H       0.20269   0.67172   0.75000 
H          H       0.20269   0.53097   0.75000 
O          O       0.59622   0.47304   0.75000 
O          O       0.52696   0.40378   0.75000 
C          C       0.60174   0.43705   0.75000 
C          C       0.56295   0.39826   0.75000 
C          C       0.64156   0.43813   0.75000 
C          C       0.56187   0.35844   0.75000 
C          C       0.64158   0.39846   0.75000 
C          C       0.60154   0.35842   0.75000 
C          C       0.68265   0.39927   0.75000 
C          C       0.60073   0.31735   0.75000 
B          B       0.54858   0.45142   0.75000 
C          C       0.47706   0.52294   0.75000 
C          C       0.52268   0.54541   0.75000 
C          C       0.45459   0.47732   0.75000 
H          H       0.54073   0.58061   0.75000 
H          H       0.41939   0.45927   0.75000 
H          H       0.67172   0.46903   0.75000 
H          H       0.53097   0.32828   0.75000 
O          O       0.52696   0.12317   0.75000 
O          O       0.59622   0.12317   0.75000 
C          C       0.56295   0.16469   0.75000 
C          C       0.60174   0.16469   0.75000 
C          C       0.56187   0.20343   0.75000 
C          C       0.64156   0.20343   0.75000 
C          C       0.60154   0.24312   0.75000 
C          C       0.64158   0.24312   0.75000 
C          C       0.60073   0.28338   0.75000 
C          C       0.68265   0.28338   0.75000 
B          B       0.54858   0.09716   0.75000 
H          H       0.53097   0.20269   0.75000 
H          H       0.67172   0.20269   0.75000 
O          O       0.87683   0.40378   0.75000 
O          O       0.87683   0.47304   0.75000 
C          C       0.83531   0.39826   0.75000 
C          C       0.83531   0.43705   0.75000 
C          C       0.79657   0.35844   0.75000 
C          C       0.79657   0.43813   0.75000 
C          C       0.75688   0.35842   0.75000 
C          C       0.75688   0.39846   0.75000 
C          C       0.71662   0.31735   0.75000 
C          C       0.71662   0.39927   0.75000 
B          B       0.90284   0.45142   0.75000 
H          H       0.79731   0.32828   0.75000 
H          H       0.79731   0.46903   0.75000 
C          C       0.52294   0.04588   0.75000 
C          C       0.54541   0.02272   0.75000 
C          C       0.47732   0.02272   0.75000 
H          H       0.58061   0.03988   0.75000 
H          H       0.45927   0.03988   0.75000 
C          C       0.95412   0.47706   0.75000 
C          C       0.97728   0.52268   0.75000 
C          C       0.97728   0.45459   0.75000 
H          H       0.96012   0.54073   0.75000 
H          H       0.96012   0.41939   0.75000 
C          C       0.47706   0.95412   0.75000 
C          C       0.45459   0.97728   0.75000 
C          C       0.52268   0.97728   0.75000 
H          H       0.41939   0.96012   0.75000 
H          H       0.54073   0.96012   0.75000 
C          C       0.04588   0.52294   0.75000 
C          C       0.02272   0.47732   0.75000 
C          C       0.02272   0.54541   0.75000 
H          H       0.03988   0.45927   0.75000 
H          H       0.03988   0.58061   0.75000 
