data_crystal
 
_cell_length_a    39.45080
_cell_length_b    39.45080
_cell_length_c    6.80000
_cell_angle_alpha 90.00000
_cell_angle_beta  90.00000
_cell_angle_gamma 120.00000
 
_symmetry_space_group_name_Hall 'P 1'
_symmetry_space_group_name_H-M  'P 1'
 
loop_
_symmetry_equiv_pos_as_xyz
 'x,y,z' 
 
loop_
_atom_site_label
_atom_site_type_symbol
_atom_site_fract_x
_atom_site_fract_y
_atom_site_fract_z
C          C       0.55243   0.11753   0.25000 
N          N       0.56347   0.08600   0.25000 
C          C       0.53198   0.04343   0.25000 
C          C       0.88247   0.43490   0.25000 
N          N       0.91400   0.47747   0.25000 
C          C       0.95657   0.48854   0.25000 
C          C       0.56510   0.44757   0.25000 
N          N       0.52253   0.43653   0.25000 
C          C       0.51146   0.46802   0.25000 
C          C       0.44757   0.88247   0.25000 
N          N       0.43653   0.91400   0.25000 
C          C       0.46802   0.95657   0.25000 
C          C       0.11753   0.56510   0.25000 
N          N       0.08600   0.52253   0.25000 
C          C       0.04343   0.51146   0.25000 
C          C       0.43490   0.55243   0.25000 
N          N       0.47747   0.56347   0.25000 
C          C       0.48854   0.53198   0.25000 
C          C       0.54349   1.01146   0.25000 
C          C       0.51148   0.96799   0.25000 
H          H       0.57569   1.01999   0.25000 
H          H       0.51998   0.94427   0.25000 
H          H       0.41624   0.50247   0.25000 
C          C       0.38030   0.81656   0.25000 
C          C       0.35844   0.77594   0.25000 
H          H       0.36459   0.83420   0.25000 
H          H       0.32510   0.76054   0.25000 
C          C       0.18597   0.62968   0.25000 
C          C       0.22662   0.64918   0.25000 
H          H       0.17028   0.64735   0.25000 
H          H       0.24398   0.68254   0.25000 
C          C       0.29216   0.64729   0.25000 
C          C       0.16311   0.58655   0.25000 
C          C       0.24805   0.62653   0.25000 
C          C       0.31178   0.62595   0.25000 
H          H       0.29819   0.70560   0.25000 
C          C      -0.01146   0.53203   0.25000 
C          C       0.03201   0.54349   0.25000 
H          H      -0.01999   0.55570   0.25000 
H          H       0.05573   0.57571   0.25000 
H          H       0.49753   0.91377   0.25000 
C          C       0.18344   0.56374   0.25000 
C          C       0.22406   0.58250   0.25000 
H          H       0.16580   0.53039   0.25000 
H          H       0.23946   0.56456   0.25000 
C          C       0.37032   0.55628   0.25000 
C          C       0.35082   0.57744   0.25000 
H          H       0.35265   0.52293   0.25000 
H          H       0.31746   0.56145   0.25000 
C          C       0.35271   0.64487   0.25000 
C          C       0.41345   0.57656   0.25000 
C          C       0.37347   0.62152   0.25000 
C          C       0.37405   0.68583   0.25000 
H          H       0.29440   0.59259   0.25000 
C          C       0.46797   0.45651   0.25000 
C          C       0.45651   0.48852   0.25000 
H          H       0.44430   0.42431   0.25000 
H          H       0.42429   0.48002   0.25000 
H          H       0.08623   0.58376   0.25000 
C          C       0.43626   0.61970   0.25000 
C          C       0.41750   0.64156   0.25000 
H          H       0.46961   0.63541   0.25000 
H          H       0.43544   0.67490   0.25000 
C          C       0.44372   0.81403   0.25000 
C          C       0.42256   0.77338   0.25000 
H          H       0.47707   0.82972   0.25000 
H          H       0.43855   0.75602   0.25000 
C          C       0.35513   0.70784   0.25000 
C          C       0.42344   0.83688   0.25000 
C          C       0.37848   0.75195   0.25000 
C          C       0.31417   0.68822   0.25000 
H          H       0.40741   0.70181   0.25000 
H          H       0.49872   0.40439   0.25000 
C          C       0.45651  -0.01146   0.25000 
C          C       0.48852   0.03201   0.25000 
H          H       0.42431  -0.01999   0.25000 
H          H       0.48002   0.05573   0.25000 
H          H       0.58376   0.49753   0.25000 
C          C       0.61970   0.18344   0.25000 
C          C       0.64156   0.22406   0.25000 
H          H       0.63541   0.16580   0.25000 
H          H       0.67490   0.23946   0.25000 
C          C       0.81403   0.37032   0.25000 
C          C       0.77338   0.35082   0.25000 
H          H       0.82972   0.35265   0.25000 
H          H       0.75602   0.31746   0.25000 
C          C       0.70784   0.35271   0.25000 
C          C       0.83688   0.41345   0.25000 
C          C       0.75195   0.37347   0.25000 
C          C       0.68822   0.37405   0.25000 
H          H       0.70181   0.29440   0.25000 
C          C       1.01146   0.46797   0.25000 
C          C       0.96799   0.45651   0.25000 
H          H       1.01999   0.44430   0.25000 
H          H       0.94427   0.42429   0.25000 
H          H       0.50247   0.08623   0.25000 
C          C       0.81656   0.43626   0.25000 
C          C       0.77594   0.41750   0.25000 
H          H       0.83420   0.46961   0.25000 
H          H       0.76054   0.43544   0.25000 
C          C       0.62968   0.44372   0.25000 
C          C       0.64918   0.42256   0.25000 
H          H       0.64735   0.47707   0.25000 
H          H       0.68254   0.43855   0.25000 
C          C       0.64729   0.35513   0.25000 
C          C       0.58655   0.42344   0.25000 
C          C       0.62653   0.37848   0.25000 
C          C       0.62595   0.31417   0.25000 
H          H       0.70560   0.40741   0.25000 
C          C       0.53203   0.54349   0.25000 
C          C       0.54349   0.51148   0.25000 
H          H       0.55570   0.57569   0.25000 
H          H       0.57571   0.51998   0.25000 
H          H       0.91377   0.41624   0.25000 
C          C       0.56374   0.38030   0.25000 
C          C       0.58250   0.35844   0.25000 
H          H       0.53039   0.36459   0.25000 
H          H       0.56456   0.32510   0.25000 
C          C       0.55628   0.18597   0.25000 
C          C       0.57744   0.22662   0.25000 
H          H       0.52293   0.17028   0.25000 
H          H       0.56145   0.24398   0.25000 
C          C       0.64487   0.29216   0.25000 
C          C       0.57656   0.16311   0.25000 
C          C       0.62152   0.24805   0.25000 
C          C       0.68583   0.31178   0.25000 
H          H       0.59259   0.29819   0.25000 
H          H       0.50128   0.59561   0.25000 
H          H       0.59561   0.09433   0.25000 
H          H       0.90567   0.50128   0.25000 
H          H       0.40439   0.90567   0.25000 
H          H       0.09433   0.49872   0.25000 
C          C       0.55243   0.11753   0.75000 
N          N       0.56347   0.08600   0.75000 
C          C       0.53198   0.04343   0.75000 
C          C       0.88247   0.43490   0.75000 
N          N       0.91400   0.47747   0.75000 
C          C       0.95657   0.48854   0.75000 
C          C       0.56510   0.44757   0.75000 
N          N       0.52253   0.43653   0.75000 
C          C       0.51146   0.46802   0.75000 
C          C       0.44757   0.88247   0.75000 
N          N       0.43653   0.91400   0.75000 
C          C       0.46802   0.95657   0.75000 
C          C       0.11753   0.56510   0.75000 
N          N       0.08600   0.52253   0.75000 
C          C       0.04343   0.51146   0.75000 
C          C       0.43490   0.55243   0.75000 
N          N       0.47747   0.56347   0.75000 
C          C       0.48854   0.53198   0.75000 
C          C       0.54349   1.01146   0.75000 
C          C       0.51148   0.96799   0.75000 
H          H       0.57569   1.01999   0.75000 
H          H       0.51998   0.94427   0.75000 
H          H       0.41624   0.50247   0.75000 
C          C       0.38030   0.81656   0.75000 
C          C       0.35844   0.77594   0.75000 
H          H       0.36459   0.83420   0.75000 
H          H       0.32510   0.76054   0.75000 
C          C       0.18597   0.62968   0.75000 
C          C       0.22662   0.64918   0.75000 
H          H       0.17028   0.64735   0.75000 
H          H       0.24398   0.68254   0.75000 
C          C       0.29216   0.64729   0.75000 
C          C       0.16311   0.58655   0.75000 
C          C       0.24805   0.62653   0.75000 
C          C       0.31178   0.62595   0.75000 
H          H       0.29819   0.70560   0.75000 
C          C      -0.01146   0.53203   0.75000 
C          C       0.03201   0.54349   0.75000 
H          H      -0.01999   0.55570   0.75000 
H          H       0.05573   0.57571   0.75000 
H          H       0.49753   0.91377   0.75000 
C          C       0.18344   0.56374   0.75000 
C          C       0.22406   0.58250   0.75000 
H          H       0.16580   0.53039   0.75000 
H          H       0.23946   0.56456   0.75000 
C          C       0.37032   0.55628   0.75000 
C          C       0.35082   0.57744   0.75000 
H          H       0.35265   0.52293   0.75000 
H          H       0.31746   0.56145   0.75000 
C          C       0.35271   0.64487   0.75000 
C          C       0.41345   0.57656   0.75000 
C          C       0.37347   0.62152   0.75000 
C          C       0.37405   0.68583   0.75000 
H          H       0.29440   0.59259   0.75000 
C          C       0.46797   0.45651   0.75000 
C          C       0.45651   0.48852   0.75000 
H          H       0.44430   0.42431   0.75000 
H          H       0.42429   0.48002   0.75000 
H          H       0.08623   0.58376   0.75000 
C          C       0.43626   0.61970   0.75000 
C          C       0.41750   0.64156   0.75000 
H          H       0.46961   0.63541   0.75000 
H          H       0.43544   0.67490   0.75000 
C          C       0.44372   0.81403   0.75000 
C          C       0.42256   0.77338   0.75000 
H          H       0.47707   0.82972   0.75000 
H          H       0.43855   0.75602   0.75000 
C          C       0.35513   0.70784   0.75000 
C          C       0.42344   0.83688   0.75000 
C          C       0.37848   0.75195   0.75000 
C          C       0.31417   0.68822   0.75000 
H          H       0.40741   0.70181   0.75000 
H          H       0.49872   0.40439   0.75000 
C          C       0.45651  -0.01146   0.75000 
C          C       0.48852   0.03201   0.75000 
H          H       0.42431  -0.01999   0.75000 
H          H       0.48002   0.05573   0.75000 
H          H       0.58376   0.49753   0.75000 
C          C       0.61970   0.18344   0.75000 
C          C       0.64156   0.22406   0.75000 
H          H       0.63541   0.16580   0.75000 
H          H       0.67490   0.23946   0.75000 
C          C       0.81403   0.37032   0.75000 
C          C       0.77338   0.35082   0.75000 
H          H       0.82972   0.35265   0.75000 
H          H       0.75602   0.31746   0.75000 
C          C       0.70784   0.35271   0.75000 
C          C       0.83688   0.41345   0.75000 
C          C       0.75195   0.37347   0.75000 
C          C       0.68822   0.37405   0.75000 
H          H       0.70181   0.29440   0.75000 
C          C       1.01146   0.46797   0.75000 
C          C       0.96799   0.45651   0.75000 
H          H       1.01999   0.44430   0.75000 
H          H       0.94427   0.42429   0.75000 
H          H       0.50247   0.08623   0.75000 
C          C       0.81656   0.43626   0.75000 
C          C       0.77594   0.41750   0.75000 
H          H       0.83420   0.46961   0.75000 
H          H       0.76054   0.43544   0.75000 
C          C       0.62968   0.44372   0.75000 
C          C       0.64918   0.42256   0.75000 
H          H       0.64735   0.47707   0.75000 
H          H       0.68254   0.43855   0.75000 
C          C       0.64729   0.35513   0.75000 
C          C       0.58655   0.42344   0.75000 
C          C       0.62653   0.37848   0.75000 
C          C       0.62595   0.31417   0.75000 
H          H       0.70560   0.40741   0.75000 
C          C       0.53203   0.54349   0.75000 
C          C       0.54349   0.51148   0.75000 
H          H       0.55570   0.57569   0.75000 
H          H       0.57571   0.51998   0.75000 
H          H       0.91377   0.41624   0.75000 
C          C       0.56374   0.38030   0.75000 
C          C       0.58250   0.35844   0.75000 
H          H       0.53039   0.36459   0.75000 
H          H       0.56456   0.32510   0.75000 
C          C       0.55628   0.18597   0.75000 
C          C       0.57744   0.22662   0.75000 
H          H       0.52293   0.17028   0.75000 
H          H       0.56145   0.24398   0.75000 
C          C       0.64487   0.29216   0.75000 
C          C       0.57656   0.16311   0.75000 
C          C       0.62152   0.24805   0.75000 
C          C       0.68583   0.31178   0.75000 
H          H       0.59259   0.29819   0.75000 
H          H       0.50128   0.59561   0.75000 
H          H       0.59561   0.09433   0.75000 
H          H       0.90567   0.50128   0.75000 
H          H       0.40439   0.90567   0.75000 
H          H       0.09433   0.49872   0.75000 
