data_crystal
 
_cell_length_a    17.74010
_cell_length_b    4.20000
_cell_length_c    19.02820
_cell_angle_alpha 90.00000
_cell_angle_beta  114.76570
_cell_angle_gamma 90.00000
 
_symmetry_space_group_name_Hall 'P 1'
_symmetry_space_group_name_H-M  'P 1'
 
loop_
_symmetry_equiv_pos_as_xyz
 'x,y,z' 
 
loop_
_atom_site_label
_atom_site_type_symbol
_atom_site_fract_x
_atom_site_fract_y
_atom_site_fract_z
_atom_site_charge
C          C       0.53070   0.50000   0.60660   0.0000000000
C          C       0.54758   0.50000   0.48290   0.0000000000
C          C       0.40740   0.50000   0.47956   0.0000000000
C          C       0.44427   0.50000   0.56203   0.0000000000
C          C       0.58092   0.50000   0.56545   0.0000000000
C          C       0.46047   0.50000   0.44117   0.0000000000
C          C       0.79350   0.50000   0.07178   0.0000000000
C          C       0.78151   0.50000   0.19971   0.0000000000
C          C       0.92177   0.50000   0.19725   0.0000000000
C          C       0.88028   0.50000   0.11516   0.0000000000
C          C       0.74797   0.50000   0.11769   0.0000000000
C          C       0.86855   0.50000   0.23539   0.0000000000
O          O       0.39862   0.50000   0.59735   0.0000000000
O          O       0.65748   0.50000   0.60337   0.0000000000
O          O       0.42913   0.50000   0.36860   0.0000000000
H          H       0.91539   0.50000   0.08559   0.0000000000
H          H       0.68666   0.50000   0.09018   0.0000000000
H          H       0.89470   0.50000   0.29302   0.0000000000
C          C       0.75441   0.50000   0.98807   0.0000000000
C          C       0.73198   0.50000   0.24333   0.0000000000
C          C       0.01026   0.50000   0.23911   0.0000000000
C          C       0.66737   0.50000   0.94494   0.0000000000
C          C       0.76667   0.50000   0.32596   0.0000000000
C          C       0.06563   0.50000   0.20274   0.0000000000
C          C       0.32007   0.50000   0.44056   0.0000000000
C          C       0.60273   0.50000   0.44656   0.0000000000
C          C       0.56208   0.50000   0.68897   0.0000000000
C          C       0.05039   0.50000   0.32161   0.0000000000
C          C       0.64426   0.50000   0.20826   0.0000000000
C          C       0.79880   0.50000   0.94085   0.0000000000
C          C       0.76028   0.50000   0.85924   0.0000000000
C          C       0.59641   0.50000   0.25116   0.0000000000
C          C       0.13595   0.50000   0.36348   0.0000000000
N          N       0.27291   0.50000   0.36291   0.0000000000
N          N       0.58216   0.50000   0.36926   0.0000000000
N          N       0.64234   0.50000   0.74012   0.0000000000
C          C       0.15196   0.50000   0.24463   0.0000000000
C          C       0.71946   0.50000   0.36911   0.0000000000
C          C       0.62852   0.50000   0.86365   0.0000000000
H          H       0.62798   0.50000   0.97063   0.0000000000
H          H       0.82808   0.50000   0.35887   0.0000000000
H          H       0.04525   0.50000   0.14427   0.0000000000
H          H       0.66367   0.50000   0.48188   0.0000000000
H          H       0.52024   0.50000   0.71202   0.0000000000
H          H       0.01961   0.50000   0.35569   0.0000000000
H          H       0.61143   0.50000   0.14997   0.0000000000
H          H       0.86109   0.50000   0.96393   0.0000000000
C          C       0.67433   0.50000   0.81892   0.0000000000
C          C       0.63300   0.50000   0.33249   0.0000000000
C          C       0.18915   0.50000   0.32606   0.0000000000
H          H       0.28930   0.50000   0.47480   0.0000000000
H          H       0.30208   0.50000   0.33026   0.0000000000
H          H       0.52416   0.50000   0.33626   0.0000000000
H          H       0.68168   0.50000   0.71781   0.0000000000
C          C       0.76513   0.50000   0.45805   0.0000000000
C          C       0.85952   0.50000   0.48212   0.0000000000
C          C       0.74095   0.19996   0.49037   0.0000000000
H          H       0.74705   0.72123   0.48216   0.0000000000
H          H       0.87744   0.27833   0.45805   0.0000000000
H          H       0.89341   0.49985   0.54795   0.0000000000
H          H       0.87753   0.72162   0.45810   0.0000000000
H          H       0.75913  -0.02121   0.46634   0.0000000000
H          H       0.67105   0.19922   0.47252   0.0000000000
H          H       0.77479   0.19988   0.55620   0.0000000000
C          C       0.50108   0.50000   0.20779   0.0000000000
C          C       0.47620   0.50000   0.11993   0.0000000000
C          C       0.46599   0.80004   0.22987   0.0000000000
H          H       0.47490   0.27877   0.22430   0.0000000000
H          H       0.50233   0.72167   0.10358   0.0000000000
H          H       0.40564   0.50015   0.08776   0.0000000000
H          H       0.50228   0.27839   0.10349   0.0000000000
H          H       0.49208   1.02122   0.21326   0.0000000000
H          H       0.48445   0.80078   0.29492   0.0000000000
H          H       0.39543   0.80012   0.19773   0.0000000000
C          C       0.20739   0.50000   0.20033   0.0000000000
C          C       0.15239   0.50000   0.11266   0.0000000000
C          C       0.26233   0.19996   0.22186   0.0000000000
H          H       0.24841   0.72123   0.21643   0.0000000000
H          H       0.11155   0.27833   0.09671   0.0000000000
H          H       0.19335   0.49985   0.07980   0.0000000000
H          H       0.11152   0.72162   0.09663   0.0000000000
H          H       0.22131  -0.02121   0.20566   0.0000000000
H          H       0.30302   0.19922   0.28678   0.0000000000
H          H       0.30333   0.19988   0.18904   0.0000000000
C          C       0.16999   0.50000   0.45240   0.0000000000
C          C       0.09708   0.50000   0.47627   0.0000000000
C          C       0.22318   0.80004   0.48482   0.0000000000
H          H       0.20971   0.27877   0.47658   0.0000000000
H          H       0.05756   0.72167   0.45213   0.0000000000
H          H       0.12219   0.50015   0.54209   0.0000000000
H          H       0.05751   0.27839   0.45218   0.0000000000
H          H       0.18343   1.02122   0.46072   0.0000000000
H          H       0.27714   0.80078   0.46712   0.0000000000
H          H       0.24834   0.80012   0.55064   0.0000000000
C          C       0.53295   0.50000   0.82427   0.0000000000
C          C       0.49885   0.50000   0.88656   0.0000000000
C          C       0.50231   0.19996   0.77370   0.0000000000
H          H       0.51010   0.72123   0.78651   0.0000000000
H          H       0.52167   0.27833   0.92414   0.0000000000
H          H       0.42810   0.49985   0.85748   0.0000000000
H          H       0.52161   0.72162   0.92418   0.0000000000
H          H       0.52507  -0.02121   0.81148   0.0000000000
H          H       0.52759   0.19922   0.72760   0.0000000000
H          H       0.43156   0.19988   0.74458   0.0000000000
C          C       0.81367   0.50000   0.81296   0.0000000000
C          C       0.90622   0.50000   0.86938   0.0000000000
C          C       0.79425   0.80004   0.76187   0.0000000000
H          H       0.79915   0.27877   0.77481   0.0000000000
H          H       0.92060   0.72167   0.90735   0.0000000000
H          H       0.94582   0.50015   0.83519   0.0000000000
H          H       0.92069   0.27839   0.90739   0.0000000000
H          H       0.80889   1.02122   0.80003   0.0000000000
H          H       0.72572   0.80078   0.72012   0.0000000000
H          H       0.83381   0.80012   0.72764   0.0000000000
