data_crystal
 
_cell_length_a    19.02820
_cell_length_b    17.74010
_cell_length_c    8.40000
_cell_angle_alpha 90.00000
_cell_angle_beta  90.00000
_cell_angle_gamma 114.76570
 
_symmetry_space_group_name_Hall 'P 1'
_symmetry_space_group_name_H-M  'P 1'
 
loop_
_symmetry_equiv_pos_as_xyz
 'x,y,z' 
 
loop_
_atom_site_label
_atom_site_type_symbol
_atom_site_fract_x
_atom_site_fract_y
_atom_site_fract_z
C          C       0.60660   0.53070   0.25000 
C          C       0.48290   0.54758   0.25000 
C          C       0.47956   0.40740   0.25000 
C          C       0.56203   0.44427   0.25000 
C          C       0.56545   0.58092   0.25000 
C          C       0.44117   0.46047   0.25000 
C          C       0.07178   0.79350   0.25000 
C          C       0.19971   0.78151   0.25000 
C          C       0.19725   0.92177   0.25000 
C          C       0.11516   0.88028   0.25000 
C          C       0.11769   0.74797   0.25000 
C          C       0.23539   0.86855   0.25000 
O          O       0.59735   0.39862   0.25000 
O          O       0.60337   0.65748   0.25000 
O          O       0.36860   0.42913   0.25000 
H          H       0.08559   0.91539   0.25000 
H          H       0.09018   0.68666   0.25000 
H          H       0.29302   0.89470   0.25000 
C          C       0.98807   0.75441   0.25000 
C          C       0.24333   0.73198   0.25000 
C          C       0.23911   0.01026   0.25000 
C          C       0.94494   0.66737   0.25000 
C          C       0.32596   0.76667   0.25000 
C          C       0.20274   0.06563   0.25000 
C          C       0.44056   0.32007   0.25000 
C          C       0.44656   0.60273   0.25000 
C          C       0.68897   0.56208   0.25000 
C          C       0.32161   0.05039   0.25000 
C          C       0.20826   0.64426   0.25000 
C          C       0.94085   0.79880   0.25000 
C          C       0.85924   0.76028   0.25000 
C          C       0.25116   0.59641   0.25000 
C          C       0.36348   0.13595   0.25000 
N          N       0.36291   0.27291   0.25000 
N          N       0.36926   0.58216   0.25000 
N          N       0.74012   0.64234   0.25000 
C          C       0.24463   0.15196   0.25000 
C          C       0.36911   0.71946   0.25000 
C          C       0.86365   0.62852   0.25000 
H          H       0.97063   0.62798   0.25000 
H          H       0.35887   0.82808   0.25000 
H          H       0.14427   0.04525   0.25000 
H          H       0.48188   0.66367   0.25000 
H          H       0.71202   0.52024   0.25000 
H          H       0.35569   0.01961   0.25000 
H          H       0.14997   0.61143   0.25000 
H          H       0.96393   0.86109   0.25000 
C          C       0.81892   0.67433   0.25000 
C          C       0.33249   0.63300   0.25000 
C          C       0.32606   0.18915   0.25000 
H          H       0.47480   0.28930   0.25000 
H          H       0.33026   0.30208   0.25000 
H          H       0.33626   0.52416   0.25000 
H          H       0.71781   0.68168   0.25000 
C          C       0.45805   0.76513   0.25000 
C          C       0.48212   0.85952   0.25000 
C          C       0.49037   0.74095   0.09998 
H          H       0.48216   0.74705   0.36062 
H          H       0.45805   0.87744   0.13917 
H          H       0.54795   0.89341   0.24992 
H          H       0.45810   0.87753   0.36081 
H          H       0.46634   0.75913  -0.01060 
H          H       0.47252   0.67105   0.09961 
H          H       0.55620   0.77479   0.09994 
C          C       0.20779   0.50108   0.25000 
C          C       0.11993   0.47620   0.25000 
C          C       0.22987   0.46599   0.40002 
H          H       0.22430   0.47490   0.13939 
H          H       0.10358   0.50233   0.36084 
H          H       0.08776   0.40564   0.25007 
H          H       0.10349   0.50228   0.13920 
H          H       0.21326   0.49208   0.51061 
H          H       0.29492   0.48445   0.40039 
H          H       0.19773   0.39543   0.40006 
C          C       0.20033   0.20739   0.25000 
C          C       0.11266   0.15239   0.25000 
C          C       0.22186   0.26233   0.09998 
H          H       0.21643   0.24841   0.36062 
H          H       0.09671   0.11155   0.13917 
H          H       0.07980   0.19335   0.24992 
H          H       0.09663   0.11152   0.36081 
H          H       0.20566   0.22131  -0.01060 
H          H       0.28678   0.30302   0.09961 
H          H       0.18904   0.30333   0.09994 
C          C       0.45240   0.16999   0.25000 
C          C       0.47627   0.09708   0.25000 
C          C       0.48482   0.22318   0.40002 
H          H       0.47658   0.20971   0.13939 
H          H       0.45213   0.05756   0.36084 
H          H       0.54209   0.12219   0.25007 
H          H       0.45218   0.05751   0.13920 
H          H       0.46072   0.18343   0.51061 
H          H       0.46712   0.27714   0.40039 
H          H       0.55064   0.24834   0.40006 
C          C       0.82427   0.53295   0.25000 
C          C       0.88656   0.49885   0.25000 
C          C       0.77370   0.50231   0.09998 
H          H       0.78651   0.51010   0.36062 
H          H       0.92414   0.52167   0.13917 
H          H       0.85748   0.42810   0.24992 
H          H       0.92418   0.52161   0.36081 
H          H       0.81148   0.52507  -0.01060 
H          H       0.72760   0.52759   0.09961 
H          H       0.74458   0.43156   0.09994 
C          C       0.81296   0.81367   0.25000 
C          C       0.86938   0.90622   0.25000 
C          C       0.76187   0.79425   0.40002 
H          H       0.77481   0.79915   0.13939 
H          H       0.90735   0.92060   0.36084 
H          H       0.83519   0.94582   0.25007 
H          H       0.90739   0.92069   0.13920 
H          H       0.80003   0.80889   0.51061 
H          H       0.72012   0.72572   0.40039 
H          H       0.72764   0.83381   0.40006 
C          C       0.60660   0.53070   0.75000 
C          C       0.48290   0.54758   0.75000 
C          C       0.47956   0.40740   0.75000 
C          C       0.56203   0.44427   0.75000 
C          C       0.56545   0.58092   0.75000 
C          C       0.44117   0.46047   0.75000 
C          C       0.07178   0.79350   0.75000 
C          C       0.19971   0.78151   0.75000 
C          C       0.19725   0.92177   0.75000 
C          C       0.11516   0.88028   0.75000 
C          C       0.11769   0.74797   0.75000 
C          C       0.23539   0.86855   0.75000 
O          O       0.59735   0.39862   0.75000 
O          O       0.60337   0.65748   0.75000 
O          O       0.36860   0.42913   0.75000 
H          H       0.08559   0.91539   0.75000 
H          H       0.09018   0.68666   0.75000 
H          H       0.29302   0.89470   0.75000 
C          C       0.98807   0.75441   0.75000 
C          C       0.24333   0.73198   0.75000 
C          C       0.23911   0.01026   0.75000 
C          C       0.94494   0.66737   0.75000 
C          C       0.32596   0.76667   0.75000 
C          C       0.20274   0.06563   0.75000 
C          C       0.44056   0.32007   0.75000 
C          C       0.44656   0.60273   0.75000 
C          C       0.68897   0.56208   0.75000 
C          C       0.32161   0.05039   0.75000 
C          C       0.20826   0.64426   0.75000 
C          C       0.94085   0.79880   0.75000 
C          C       0.85924   0.76028   0.75000 
C          C       0.25116   0.59641   0.75000 
C          C       0.36348   0.13595   0.75000 
N          N       0.36291   0.27291   0.75000 
N          N       0.36926   0.58216   0.75000 
N          N       0.74012   0.64234   0.75000 
C          C       0.24463   0.15196   0.75000 
C          C       0.36911   0.71946   0.75000 
C          C       0.86365   0.62852   0.75000 
H          H       0.97063   0.62798   0.75000 
H          H       0.35887   0.82808   0.75000 
H          H       0.14427   0.04525   0.75000 
H          H       0.48188   0.66367   0.75000 
H          H       0.71202   0.52024   0.75000 
H          H       0.35569   0.01961   0.75000 
H          H       0.14997   0.61143   0.75000 
H          H       0.96393   0.86109   0.75000 
C          C       0.81892   0.67433   0.75000 
C          C       0.33249   0.63300   0.75000 
C          C       0.32606   0.18915   0.75000 
H          H       0.47480   0.28930   0.75000 
H          H       0.33026   0.30208   0.75000 
H          H       0.33626   0.52416   0.75000 
H          H       0.71781   0.68168   0.75000 
C          C       0.45805   0.76513   0.75000 
C          C       0.48212   0.85952   0.75000 
C          C       0.49037   0.74095   0.59998 
H          H       0.48216   0.74705   0.86062 
H          H       0.45805   0.87744   0.63916 
H          H       0.54795   0.89341   0.74992 
H          H       0.45810   0.87753   0.86081 
H          H       0.46634   0.75913   0.48939 
H          H       0.47252   0.67105   0.59961 
H          H       0.55620   0.77479   0.59994 
C          C       0.20779   0.50108   0.75000 
C          C       0.11993   0.47620   0.75000 
C          C       0.22987   0.46599   0.90002 
H          H       0.22430   0.47490   0.63938 
H          H       0.10358   0.50233   0.86083 
H          H       0.08776   0.40564   0.75007 
H          H       0.10349   0.50228   0.63919 
H          H       0.21326   0.49208   1.01061 
H          H       0.29492   0.48445   0.90039 
H          H       0.19773   0.39543   0.90006 
C          C       0.20033   0.20739   0.75000 
C          C       0.11266   0.15239   0.75000 
C          C       0.22186   0.26233   0.59998 
H          H       0.21643   0.24841   0.86062 
H          H       0.09671   0.11155   0.63916 
H          H       0.07980   0.19335   0.74992 
H          H       0.09663   0.11152   0.86081 
H          H       0.20566   0.22131   0.48939 
H          H       0.28678   0.30302   0.59961 
H          H       0.18904   0.30333   0.59994 
C          C       0.45240   0.16999   0.75000 
C          C       0.47627   0.09708   0.75000 
C          C       0.48482   0.22318   0.90002 
H          H       0.47658   0.20971   0.63938 
H          H       0.45213   0.05756   0.86083 
H          H       0.54209   0.12219   0.75007 
H          H       0.45218   0.05751   0.63919 
H          H       0.46072   0.18343   1.01061 
H          H       0.46712   0.27714   0.90039 
H          H       0.55064   0.24834   0.90006 
C          C       0.82427   0.53295   0.75000 
C          C       0.88656   0.49885   0.75000 
C          C       0.77370   0.50231   0.59998 
H          H       0.78651   0.51010   0.86062 
H          H       0.92414   0.52167   0.63916 
H          H       0.85748   0.42810   0.74992 
H          H       0.92418   0.52161   0.86081 
H          H       0.81148   0.52507   0.48939 
H          H       0.72760   0.52759   0.59961 
H          H       0.74458   0.43156   0.59994 
C          C       0.81296   0.81367   0.75000 
C          C       0.86938   0.90622   0.75000 
C          C       0.76187   0.79425   0.90002 
H          H       0.77481   0.79915   0.63938 
H          H       0.90735   0.92060   0.86083 
H          H       0.83519   0.94582   0.75007 
H          H       0.90739   0.92069   0.63919 
H          H       0.80003   0.80889   1.01061 
H          H       0.72012   0.72572   0.90039 
H          H       0.72764   0.83381   0.90006 
