data_crystal
 
_cell_length_a    26.46360
_cell_length_b    26.46360
_cell_length_c    3.50000
_cell_angle_alpha 90.00000
_cell_angle_beta  90.00000
_cell_angle_gamma 120.00000
 
_symmetry_space_group_name_Hall 'P 1'
_symmetry_space_group_name_H-M  'P 1'
 
loop_
_symmetry_equiv_pos_as_xyz
 'x,y,z' 
 
loop_
_atom_site_label
_atom_site_type_symbol
_atom_site_fract_x
_atom_site_fract_y
_atom_site_fract_z
_atom_site_charge
C          C       0.73045   0.36594   0.50000   0.0000000000
C          C       0.63406   0.36451   0.50000   0.0000000000
C          C       0.63550   0.26955   0.50000   0.0000000000
C          C       0.69738   0.30398   0.50000   0.0000000000
C          C       0.69602   0.39340   0.50000   0.0000000000
C          C       0.60661   0.30263   0.50000   0.0000000000
C          C       0.27005   0.64200   0.50000   0.0000000000
C          C       0.35800   0.62805   0.50000   0.0000000000
C          C       0.37195   0.72995   0.50000   0.0000000000
C          C       0.31011   0.70302   0.50000   0.0000000000
C          C       0.29698   0.60709   0.50000   0.0000000000
C          C       0.39291   0.68989   0.50000   0.0000000000
H          H       0.72055   0.27745   0.50000   0.0000000000
H          H       0.72255   0.44310   0.50000   0.0000000000
H          H       0.55690   0.27945   0.50000   0.0000000000
H          H       0.29329   0.73515   0.50000   0.0000000000
H          H       0.26485   0.55814   0.50000   0.0000000000
H          H       0.44186   0.70671   0.50000   0.0000000000
C          C       0.20740   0.61757   0.50000   0.0000000000
C          C       0.38243   0.58982   0.50000   0.0000000000
C          C       0.41018   0.79261   0.50000   0.0000000000
C          C       0.79360   0.39823   0.50000   0.0000000000
C          C       0.60177   0.39537   0.50000   0.0000000000
C          C       0.60463   0.20641   0.50000   0.0000000000
C          C       0.18019   0.65255   0.50000   0.0000000000
C          C       0.34745   0.52763   0.50000   0.0000000000
C          C       0.47237   0.81982   0.50000   0.0000000000
C          C       0.82833   0.37074   0.50000   0.0000000000
C          C       0.62926   0.45759   0.50000   0.0000000000
C          C       0.54241   0.17167   0.50000   0.0000000000
C          C       0.63357   0.17303   0.50000   0.0000000000
C          C       0.82698   0.46054   0.50000   0.0000000000
C          C       0.53946   0.36644   0.50000   0.0000000000
C          C       0.38922   0.83298   0.50000   0.0000000000
C          C       0.16702   0.55625   0.50000   0.0000000000
C          C       0.44376   0.61078   0.50000   0.0000000000
C          C       0.11932   0.62922   0.50000   0.0000000000
C          C       0.37078   0.49010   0.50000   0.0000000000
C          C       0.50990   0.88068   0.50000   0.0000000000
C          C       0.88971   0.40189   0.50000   0.0000000000
C          C       0.59811   0.48782   0.50000   0.0000000000
C          C       0.51218   0.11029   0.50000   0.0000000000
C          C       0.60381   0.11165   0.50000   0.0000000000
C          C       0.88835   0.49216   0.50000   0.0000000000
C          C       0.50785   0.39619   0.50000   0.0000000000
C          C       0.42605   0.89393   0.50000   0.0000000000
C          C       0.10607   0.53212   0.50000   0.0000000000
C          C       0.46788   0.57395   0.50000   0.0000000000
C          C       0.08117   0.56841   0.50000   0.0000000000
C          C       0.43159   0.51276   0.50000   0.0000000000
C          C       0.48724   0.91883   0.50000   0.0000000000
C          C       0.92085   0.46314   0.50000   0.0000000000
C          C       0.53686   0.45771   0.50000   0.0000000000
C          C       0.54230   0.07915   0.50000   0.0000000000
C          C       0.02058   0.54646   0.50000   0.0000000000
C          C       0.45354   0.47412   0.50000   0.0000000000
C          C       0.52588   0.97942   0.50000   0.0000000000
N          N       0.97991   0.48920   0.50000   0.0000000000
N          N       0.51080   0.49071   0.50000   0.0000000000
N          N       0.50929   0.02009   0.50000   0.0000000000
H          H       0.20809   0.70216   0.50000   0.0000000000
H          H       0.29784   0.50593   0.50000   0.0000000000
H          H       0.49408   0.79191   0.50000   0.0000000000
H          H       0.80641   0.32111   0.50000   0.0000000000
H          H       0.67889   0.48530   0.50000   0.0000000000
H          H       0.51470   0.19359   0.50000   0.0000000000
H          H       0.68327   0.19610   0.50000   0.0000000000
H          H       0.80390   0.48716   0.50000   0.0000000000
H          H       0.51284   0.31674   0.50000   0.0000000000
H          H       0.34029   0.81626   0.50000   0.0000000000
H          H       0.18374   0.52403   0.50000   0.0000000000
H          H       0.47597   0.65971   0.50000   0.0000000000
H          H       0.10043   0.65962   0.50000   0.0000000000
H          H       0.34038   0.44081   0.50000   0.0000000000
H          H       0.55919   0.89958   0.50000   0.0000000000
H          H       0.91496   0.37740   0.50000   0.0000000000
H          H       0.62261   0.53756   0.50000   0.0000000000
H          H       0.46244   0.08504   0.50000   0.0000000000
H          H       0.62943   0.08754   0.50000   0.0000000000
H          H       0.91246   0.54189   0.50000   0.0000000000
H          H       0.45811   0.37057   0.50000   0.0000000000
H          H       0.40651   0.92377   0.50000   0.0000000000
H          H       0.07623   0.48274   0.50000   0.0000000000
H          H       0.51727   0.59350   0.50000   0.0000000000
H          H       0.00279   0.57779   0.50000   0.0000000000
H          H       0.42221   0.42499   0.50000   0.0000000000
H          H       0.57501   0.99721   0.50000   0.0000000000
