data_crystal

_cell_length_a    26.46360
_cell_length_b    26.46360
_cell_length_c    8.40000
_cell_angle_alpha 90.00000
_cell_angle_beta  90.00000
_cell_angle_gamma 120.00000

_space_group_name_Hall 'P 1'
_space_group_name_H-M_alt  'P 1'

loop_
_symmetry_equiv_pos_as_xyz
'x,y,z' 

loop_
_atom_site_label
_atom_site_type_symbol
_atom_site_fract_x
_atom_site_fract_y
_atom_site_fract_z
C          C       0.73045   0.36594   0.25000 
C          C       0.63406   0.36451   0.25000 
C          C       0.63550   0.26955   0.25000 
C          C       0.69738   0.30398   0.25000 
C          C       0.69602   0.39340   0.25000 
C          C       0.60661   0.30263   0.25000 
C          C       0.27005   0.64200   0.25000 
C          C       0.35800   0.62805   0.25000 
C          C       0.37195   0.72995   0.25000 
C          C       0.31011   0.70302   0.25000 
C          C       0.29698   0.60709   0.25000 
C          C       0.39291   0.68989   0.25000 
H          H       0.72055   0.27745   0.25000 
H          H       0.72255   0.44310   0.25000 
H          H       0.55690   0.27945   0.25000 
H          H       0.29329   0.73515   0.25000 
H          H       0.26485   0.55814   0.25000 
H          H       0.44186   0.70671   0.25000 
C          C       0.20740   0.61757   0.25000 
C          C       0.38243   0.58982   0.25000 
C          C       0.41018   0.79261   0.25000 
C          C       0.79360   0.39823   0.25000 
C          C       0.60177   0.39537   0.25000 
C          C       0.60463   0.20641   0.25000 
C          C       0.18019   0.65255   0.25000 
C          C       0.34745   0.52763   0.25000 
C          C       0.47237   0.81982   0.25000 
C          C       0.82833   0.37074   0.25000 
C          C       0.62926   0.45759   0.25000 
C          C       0.54241   0.17167   0.25000 
C          C       0.63357   0.17303   0.25000 
C          C       0.82698   0.46054   0.25000 
C          C       0.53946   0.36644   0.25000 
C          C       0.38922   0.83298   0.25000 
C          C       0.16702   0.55625   0.25000 
C          C       0.44376   0.61078   0.25000 
C          C       0.11932   0.62922   0.25000 
C          C       0.37078   0.49010   0.25000 
C          C       0.50990   0.88068   0.25000 
C          C       0.88971   0.40189   0.25000 
C          C       0.59811   0.48782   0.25000 
C          C       0.51218   0.11029   0.25000 
C          C       0.60381   0.11165   0.25000 
C          C       0.88835   0.49216   0.25000 
C          C       0.50785   0.39619   0.25000 
C          C       0.42605   0.89393   0.25000 
C          C       0.10607   0.53212   0.25000 
C          C       0.46788   0.57395   0.25000 
C          C       0.08117   0.56841   0.25000 
C          C       0.43159   0.51276   0.25000 
C          C       0.48724   0.91883   0.25000 
C          C       0.92085   0.46314   0.25000 
C          C       0.53686   0.45771   0.25000 
C          C       0.54230   0.07915   0.25000 
C          C       0.02058   0.54646   0.25000 
C          C       0.45354   0.47412   0.25000 
C          C       0.52588   0.97942   0.25000 
N          N       0.97991   0.48920   0.25000 
N          N       0.51080   0.49071   0.25000 
N          N       0.50929   0.02009   0.25000 
H          H       0.20809   0.70216   0.25000 
H          H       0.29784   0.50593   0.25000 
H          H       0.49408   0.79191   0.25000 
H          H       0.80641   0.32111   0.25000 
H          H       0.67889   0.48530   0.25000 
H          H       0.51470   0.19359   0.25000 
H          H       0.68327   0.19610   0.25000 
H          H       0.80390   0.48716   0.25000 
H          H       0.51284   0.31674   0.25000 
H          H       0.34029   0.81626   0.25000 
H          H       0.18374   0.52403   0.25000 
H          H       0.47597   0.65971   0.25000 
H          H       0.10043   0.65962   0.25000 
H          H       0.34038   0.44081   0.25000 
H          H       0.55919   0.89958   0.25000 
H          H       0.40651   0.92377   0.25000 
H          H       0.07623   0.48274   0.25000 
H          H       0.51727   0.59350   0.25000 
H          H       0.00279   0.57779   0.25000 
H          H       0.42221   0.42499   0.25000 
H          H       0.57501   0.99721   0.25000 
C          C       0.63120   0.55502   0.25000 
C          C       0.69736   0.57793   0.25000 
C          C       0.61479   0.57708   0.40002 
H          H       0.61893   0.57147   0.13939 
H          H       0.70952   0.56149   0.36084 
H          H       0.72191   0.62767   0.25007 
H          H       0.70958   0.56153   0.13920 
H          H       0.62714   0.56069   0.51061 
H          H       0.56580   0.56009   0.40040 
H          H       0.63931   0.62682   0.40006 
C          C       0.44066   0.36158   0.25000 
C          C       0.41941   0.29576   0.25000 
C          C       0.41777   0.37707   0.09999 
H          H       0.42359   0.37317   0.36062 
H          H       0.43646   0.28428   0.13917 
H          H       0.36968   0.27008   0.24993 
H          H       0.43642   0.28422   0.36081 
H          H       0.43478   0.36542  -0.01060 
H          H       0.43353   0.42582   0.09961 
H          H       0.36804   0.35143   0.09995 
C          C       0.44499   0.07619   0.25000 
C          C       0.42208   0.11943   0.25000 
C          C       0.42292   0.03771   0.40002 
H          H       0.42853   0.04746   0.13939 
H          H       0.43851   0.14803   0.36084 
H          H       0.37234   0.09424   0.25007 
H          H       0.43848   0.14806   0.13920 
H          H       0.43931   0.06645   0.51061 
H          H       0.43991   0.00571   0.40040 
H          H       0.37318   0.01249   0.40006 
C          C       0.63842   0.07908   0.25000 
C          C       0.70424   0.12365   0.25000 
C          C       0.62293   0.04070   0.09999 
H          H       0.62683   0.05042   0.36062 
H          H       0.71572   0.15218   0.13917 
H          H       0.72992   0.09959   0.24993 
H          H       0.71578   0.15220   0.36081 
H          H       0.63459   0.06937  -0.01060 
H          H       0.57418   0.00771   0.09961 
H          H       0.64857   0.01661   0.09995 
C          C       0.92381   0.36880   0.25000 
C          C       0.88057   0.30264   0.25000 
C          C       0.96229   0.38521   0.40002 
H          H       0.95254   0.38107   0.13939 
H          H       0.85197   0.29048   0.36084 
H          H       0.90576   0.27809   0.25007 
H          H       0.85194   0.29042   0.13920 
H          H       0.93355   0.37287   0.51061 
H          H       0.99429   0.43420   0.40040 
H          H       0.98751   0.36069   0.40006 
C          C       0.92093   0.55934   0.25000 
C          C       0.87635   0.58059   0.25000 
C          C       0.95930   0.58223   0.09999 
H          H       0.94958   0.57641   0.36062 
H          H       0.84783   0.56354   0.13917 
H          H       0.90041   0.63033   0.24993 
H          H       0.84780   0.56358   0.36081 
H          H       0.93063   0.56522  -0.01060 
H          H       0.99229   0.56647   0.09961 
H          H       0.98339   0.63196   0.09995 
C          C       0.73045   0.36594   0.75000 
C          C       0.63406   0.36451   0.75000 
C          C       0.63550   0.26955   0.75000 
C          C       0.69738   0.30398   0.75000 
C          C       0.69602   0.39340   0.75000 
C          C       0.60661   0.30263   0.75000 
C          C       0.27005   0.64200   0.75000 
C          C       0.35800   0.62805   0.75000 
C          C       0.37195   0.72995   0.75000 
C          C       0.31011   0.70302   0.75000 
C          C       0.29698   0.60709   0.75000 
C          C       0.39291   0.68989   0.75000 
H          H       0.72055   0.27745   0.75000 
H          H       0.72255   0.44310   0.75000 
H          H       0.55690   0.27945   0.75000 
H          H       0.29329   0.73515   0.75000 
H          H       0.26485   0.55814   0.75000 
H          H       0.44186   0.70671   0.75000 
C          C       0.20740   0.61757   0.75000 
C          C       0.38243   0.58982   0.75000 
C          C       0.41018   0.79261   0.75000 
C          C       0.79360   0.39823   0.75000 
C          C       0.60177   0.39537   0.75000 
C          C       0.60463   0.20641   0.75000 
C          C       0.18019   0.65255   0.75000 
C          C       0.34745   0.52763   0.75000 
C          C       0.47237   0.81982   0.75000 
C          C       0.82833   0.37074   0.75000 
C          C       0.62926   0.45759   0.75000 
C          C       0.54241   0.17167   0.75000 
C          C       0.63357   0.17303   0.75000 
C          C       0.82698   0.46054   0.75000 
C          C       0.53946   0.36644   0.75000 
C          C       0.38922   0.83298   0.75000 
C          C       0.16702   0.55625   0.75000 
C          C       0.44376   0.61078   0.75000 
C          C       0.11932   0.62922   0.75000 
C          C       0.37078   0.49010   0.75000 
C          C       0.50990   0.88068   0.75000 
C          C       0.88971   0.40189   0.75000 
C          C       0.59811   0.48782   0.75000 
C          C       0.51218   0.11029   0.75000 
C          C       0.60381   0.11165   0.75000 
C          C       0.88835   0.49216   0.75000 
C          C       0.50785   0.39619   0.75000 
C          C       0.42605   0.89393   0.75000 
C          C       0.10607   0.53212   0.75000 
C          C       0.46788   0.57395   0.75000 
C          C       0.08117   0.56841   0.75000 
C          C       0.43159   0.51276   0.75000 
C          C       0.48724   0.91883   0.75000 
C          C       0.92085   0.46314   0.75000 
C          C       0.53686   0.45771   0.75000 
C          C       0.54230   0.07915   0.75000 
C          C       0.02058   0.54646   0.75000 
C          C       0.45354   0.47412   0.75000 
C          C       0.52588   0.97942   0.75000 
N          N       0.97991   0.48920   0.75000 
N          N       0.51080   0.49071   0.75000 
N          N       0.50929   0.02009   0.75000 
H          H       0.20809   0.70216   0.75000 
H          H       0.29784   0.50593   0.75000 
H          H       0.49408   0.79191   0.75000 
H          H       0.80641   0.32111   0.75000 
H          H       0.67889   0.48530   0.75000 
H          H       0.51470   0.19359   0.75000 
H          H       0.68327   0.19610   0.75000 
H          H       0.80390   0.48716   0.75000 
H          H       0.51284   0.31674   0.75000 
H          H       0.34029   0.81626   0.75000 
H          H       0.18374   0.52403   0.75000 
H          H       0.47597   0.65971   0.75000 
H          H       0.10043   0.65962   0.75000 
H          H       0.34038   0.44081   0.75000 
H          H       0.55919   0.89958   0.75000 
H          H       0.40651   0.92377   0.75000 
H          H       0.07623   0.48274   0.75000 
H          H       0.51727   0.59350   0.75000 
H          H       0.00279   0.57779   0.75000 
H          H       0.42221   0.42499   0.75000 
H          H       0.57501   0.99721   0.75000 
C          C       0.63120   0.55502   0.75000 
C          C       0.69736   0.57793   0.75000 
C          C       0.61479   0.57708   0.90002 
H          H       0.61893   0.57147   0.63939 
H          H       0.70952   0.56149   0.86084 
H          H       0.72191   0.62767   0.75007 
H          H       0.70958   0.56153   0.63919 
H          H       0.62714   0.56069   1.01061 
H          H       0.56580   0.56009   0.90040 
H          H       0.63931   0.62682   0.90006 
C          C       0.44066   0.36158   0.75000 
C          C       0.41941   0.29576   0.75000 
C          C       0.41777   0.37707   0.59998 
H          H       0.42359   0.37317   0.86062 
H          H       0.43646   0.28428   0.63916 
H          H       0.36968   0.27008   0.74993 
H          H       0.43642   0.28422   0.86081 
H          H       0.43478   0.36542   0.48939 
H          H       0.43353   0.42582   0.59961 
H          H       0.36804   0.35143   0.59994 
C          C       0.44499   0.07619   0.75000 
C          C       0.42208   0.11943   0.75000 
C          C       0.42292   0.03771   0.90002 
H          H       0.42853   0.04746   0.63939 
H          H       0.43851   0.14803   0.86084 
H          H       0.37234   0.09424   0.75007 
H          H       0.43848   0.14806   0.63919 
H          H       0.43931   0.06645   1.01061 
H          H       0.43991   0.00571   0.90040 
H          H       0.37318   0.01249   0.90006 
C          C       0.63842   0.07908   0.75000 
C          C       0.70424   0.12365   0.75000 
C          C       0.62293   0.04070   0.59998 
H          H       0.62683   0.05042   0.86062 
H          H       0.71572   0.15218   0.63916 
H          H       0.72992   0.09959   0.74993 
H          H       0.71578   0.15220   0.86081 
H          H       0.63459   0.06937   0.48939 
H          H       0.57418   0.00771   0.59961 
H          H       0.64857   0.01661   0.59994 
C          C       0.92381   0.36880   0.75000 
C          C       0.88057   0.30264   0.75000 
C          C       0.96229   0.38521   0.90002 
H          H       0.95254   0.38107   0.63939 
H          H       0.85197   0.29048   0.86084 
H          H       0.90576   0.27809   0.75007 
H          H       0.85194   0.29042   0.63919 
H          H       0.93355   0.37287   1.01061 
H          H       0.99429   0.43420   0.90040 
H          H       0.98751   0.36069   0.90006 
C          C       0.92093   0.55934   0.75000 
C          C       0.87635   0.58059   0.75000 
C          C       0.95930   0.58223   0.59998 
H          H       0.94958   0.57641   0.86062 
H          H       0.84783   0.56354   0.63916 
H          H       0.90041   0.63033   0.74993 
H          H       0.84780   0.56358   0.86081 
H          H       0.93063   0.56522   0.48939 
H          H       0.99229   0.56647   0.59961 
H          H       0.98339   0.63196   0.59994 
