data_crystal

_cell_length_a    19.02820
_cell_length_b    17.94010
_cell_length_c    7.06000
_cell_angle_alpha 90.00000
_cell_angle_beta  90.00000
_cell_angle_gamma 114.76570

_space_group_name_Hall 'P 1'
_space_group_name_H-M_alt  'P 1'

loop_
_symmetry_equiv_pos_as_xyz
'x,y,z' 

loop_
_atom_site_label
_atom_site_type_symbol
_atom_site_fract_x
_atom_site_fract_y
_atom_site_fract_z
C          C       0.60660   0.53070   0.25000 
C          C       0.48290   0.54758   0.25000 
C          C       0.47956   0.40740   0.25000 
C          C       0.56203   0.44427   0.25000 
C          C       0.56545   0.58092   0.25000 
C          C       0.44117   0.46047   0.25000 
C          C       0.07178   0.79350   0.25000 
C          C       0.19971   0.78151   0.25000 
C          C       0.19725   0.92177   0.25000 
C          C       0.11516   0.88028   0.25000 
C          C       0.11769   0.74797   0.25000 
C          C       0.23539   0.86855   0.25000 
O          O       0.59735   0.39862   0.25000 
O          O       0.60337   0.65748   0.25000 
O          O       0.36860   0.42913   0.25000 
H          H       0.08559   0.91539   0.25000 
H          H       0.09018   0.68666   0.25000 
H          H       0.29302   0.89470   0.25000 
C          C       0.98807   0.75441   0.25000 
C          C       0.24333   0.73198   0.25000 
C          C       0.23911   0.01026   0.25000 
C          C       0.94494   0.66737   0.25000 
C          C       0.32596   0.76667   0.25000 
C          C       0.20274   0.06563   0.25000 
C          C       0.44056   0.32007   0.25000 
C          C       0.44656   0.60273   0.25000 
C          C       0.68897   0.56208   0.25000 
C          C       0.32161   0.05039   0.25000 
C          C       0.20826   0.64426   0.25000 
C          C       0.94085   0.79880   0.25000 
C          C       0.85924   0.76028   0.25000 
C          C       0.25116   0.59641   0.25000 
C          C       0.36348   0.13595   0.25000 
N          N       0.36291   0.27291   0.25000 
N          N       0.36926   0.58216   0.25000 
N          N       0.74012   0.64234   0.25000 
C          C       0.24463   0.15196   0.25000 
C          C       0.36911   0.71946   0.25000 
C          C       0.86365   0.62852   0.25000 
H          H       0.97063   0.62798   0.25000 
H          H       0.35887   0.82808   0.25000 
H          H       0.14427   0.04525   0.25000 
H          H       0.48188   0.66367   0.25000 
H          H       0.71202   0.52024   0.25000 
H          H       0.35569   0.01961   0.25000 
H          H       0.14997   0.61143   0.25000 
H          H       0.96393   0.86109   0.25000 
C          C       0.81892   0.67433   0.25000 
C          C       0.33249   0.63300   0.25000 
C          C       0.32606   0.18915   0.25000 
H          H       0.82866   0.79556   0.25000 
H          H       0.22263   0.53371   0.25000 
H          H       0.42226   0.15845   0.25000 
H          H       0.21538   0.18855   0.25000 
H          H       0.42789   0.74964   0.25000 
H          H       0.83790   0.56601   0.25000 
H          H       0.47480   0.28930   0.25000 
H          H       0.33026   0.30208   0.25000 
H          H       0.33626   0.52416   0.25000 
H          H       0.71781   0.68168   0.25000 
C          C       0.60660   0.53070   0.75000 
C          C       0.48290   0.54758   0.75000 
C          C       0.47956   0.40740   0.75000 
C          C       0.56203   0.44427   0.75000 
C          C       0.56545   0.58092   0.75000 
C          C       0.44117   0.46047   0.75000 
C          C       0.07178   0.79350   0.75000 
C          C       0.19971   0.78151   0.75000 
C          C       0.19725   0.92177   0.75000 
C          C       0.11516   0.88028   0.75000 
C          C       0.11769   0.74797   0.75000 
C          C       0.23539   0.86855   0.75000 
O          O       0.59735   0.39862   0.75000 
O          O       0.60337   0.65748   0.75000 
O          O       0.36860   0.42913   0.75000 
H          H       0.08559   0.91539   0.75000 
H          H       0.09018   0.68666   0.75000 
H          H       0.29302   0.89470   0.75000 
C          C       0.98807   0.75441   0.75000 
C          C       0.24333   0.73198   0.75000 
C          C       0.23911   0.01026   0.75000 
C          C       0.94494   0.66737   0.75000 
C          C       0.32596   0.76667   0.75000 
C          C       0.20274   0.06563   0.75000 
C          C       0.44056   0.32007   0.75000 
C          C       0.44656   0.60273   0.75000 
C          C       0.68897   0.56208   0.75000 
C          C       0.32161   0.05039   0.75000 
C          C       0.20826   0.64426   0.75000 
C          C       0.94085   0.79880   0.75000 
C          C       0.85924   0.76028   0.75000 
C          C       0.25116   0.59641   0.75000 
C          C       0.36348   0.13595   0.75000 
N          N       0.36291   0.27291   0.75000 
N          N       0.36926   0.58216   0.75000 
N          N       0.74012   0.64234   0.75000 
C          C       0.24463   0.15196   0.75000 
C          C       0.36911   0.71946   0.75000 
C          C       0.86365   0.62852   0.75000 
H          H       0.97063   0.62798   0.75000 
H          H       0.35887   0.82808   0.75000 
H          H       0.14427   0.04525   0.75000 
H          H       0.48188   0.66367   0.75000 
H          H       0.71202   0.52024   0.75000 
H          H       0.35569   0.01961   0.75000 
H          H       0.14997   0.61143   0.75000 
H          H       0.96393   0.86109   0.75000 
C          C       0.81892   0.67433   0.75000 
C          C       0.33249   0.63300   0.75000 
C          C       0.32606   0.18915   0.75000 
H          H       0.82866   0.79556   0.75000 
H          H       0.22263   0.53371   0.75000 
H          H       0.42226   0.15845   0.75000 
H          H       0.21538   0.18855   0.75000 
H          H       0.42789   0.74964   0.75000 
H          H       0.83790   0.56601   0.75000 
H          H       0.47480   0.28930   0.75000 
H          H       0.33026   0.30208   0.75000 
H          H       0.33626   0.52416   0.75000 
H          H       0.71781   0.68168   0.75000 
