data_crystal

_cell_length_a    21.49910
_cell_length_b    21.49910
_cell_length_c    11.26540
_cell_angle_alpha 90.00000
_cell_angle_beta  90.00000
_cell_angle_gamma 120.00000

_space_group_name_Hall 'P 1'
_space_group_name_H-M_alt  'P 1'

loop_
_symmetry_equiv_pos_as_xyz
'x,y,z' 

loop_
_atom_site_label
_atom_site_type_symbol
_atom_site_fract_x
_atom_site_fract_y
_atom_site_fract_z
C          C       0.06517   0.06789   0.33553 
C          C       0.93211   0.99728   0.33553 
C          C       0.00272   0.93483   0.33553 
C          C       0.93483   0.93211   0.33553 
C          C       0.06789   0.00272   0.33553 
C          C       0.99728   0.06517   0.33553 
C          C       0.03731   0.85220   0.24276 
C          C       0.14780   0.18511   0.24276 
C          C       0.81489   0.96269   0.24276 
C          C       0.96269   0.14780   0.24276 
C          C       0.85220   0.81489   0.24276 
C          C       0.18511   0.03731   0.24276 
C          C       0.04110   0.78870   0.24560 
C          C       0.21130   0.25240   0.24560 
C          C       0.74760   0.95890   0.24560 
C          C       0.95890   0.21130   0.24560 
C          C       0.78870   0.74760   0.24560 
C          C       0.25240   0.04110   0.24560 
C          C       0.01080   0.74004   0.34051 
C          C       0.25996   0.27077   0.34051 
C          C       0.72923   0.98920   0.34051 
C          C       0.98920   0.25996   0.34051 
C          C       0.74004   0.72923   0.34051 
C          C       0.27077   0.01080   0.34051 
C          C       0.97840   0.75694   0.43450 
C          C       0.24306   0.22146   0.43450 
C          C       0.77854   0.02160   0.43450 
C          C       0.02160   0.24306   0.43450 
C          C       0.75694   0.77854   0.43450 
C          C       0.22146   0.97840   0.43450 
C          C       0.97673   0.82154   0.43329 
C          C       0.17846   0.15519   0.43329 
C          C       0.84481   0.02327   0.43329 
C          C       0.02327   0.17846   0.43329 
C          C       0.82154   0.84481   0.43329 
C          C       0.15519   0.97673   0.43329 
C          C       0.00545   0.86996   0.33691 
C          C       0.13004   0.13549   0.33691 
C          C       0.86450   0.99455   0.33691 
C          C       0.99455   0.13004   0.33691 
C          C       0.86996   0.86450   0.33691 
C          C       0.13549   0.00545   0.33691 
C          C       0.57260   0.01484   0.38031 
C          C       0.98515   0.55775   0.38031 
C          C       0.44225   0.42740   0.38031 
C          C       0.42740   0.98515   0.38031 
C          C       0.01484   0.44225   0.38031 
C          C       0.55775   0.57260   0.38031 
C          C       0.51468   0.94333   0.37923 
C          C       0.05667   0.57135   0.37923 
C          C       0.42865   0.48532   0.37923 
C          C       0.48532   0.05667   0.37923 
C          C       0.94333   0.42865   0.37923 
C          C       0.57135   0.51468   0.37923 
C          C       0.44309   0.92866   0.38051 
C          C       0.07134   0.51444   0.38051 
C          C       0.48556   0.55691   0.38051 
C          C       0.55691   0.07134   0.38051 
C          C       0.92866   0.48556   0.38051 
C          C       0.51444   0.44309   0.38051 
H          H       0.52434   0.90129   0.37877 
H          H       0.09871   0.62306   0.37877 
H          H       0.37694   0.47566   0.37877 
H          H       0.47566   0.09871   0.37877 
H          H       0.90129   0.37694   0.37877 
H          H       0.62306   0.52434   0.37877 
H          H       0.40249   0.87623   0.38106 
H          H       0.12377   0.52626   0.38106 
H          H       0.47374   0.59751   0.38106 
H          H       0.59751   0.12377   0.38106 
H          H       0.87623   0.47374   0.38106 
H          H       0.52626   0.40249   0.38106 
H          H       0.05840   0.88579   0.17173 
H          H       0.11421   0.17261   0.17173 
H          H       0.82739   0.94160   0.17173 
H          H       0.94160   0.11421   0.17173 
H          H       0.88579   0.82739   0.17173 
H          H       0.17261   0.05840   0.17173 
H          H       0.06554   0.77753   0.17760 
H          H       0.22246   0.28801   0.17760 
H          H       0.71199   0.93446   0.17760 
H          H       0.93446   0.22246   0.17760 
H          H       0.77753   0.71199   0.17760 
H          H       0.28801   0.06554   0.17760 
H          H       0.95676   0.72277   0.50491 
H          H       0.27723   0.23399   0.50491 
H          H       0.76601   0.04323   0.50491 
H          H       0.04323   0.27723   0.50491 
H          H       0.72277   0.76601   0.50491 
H          H       0.23399   0.95676   0.50491 
H          H       0.95418   0.83310   0.50337 
H          H       0.16690   0.12108   0.50337 
H          H       0.87892   0.04582   0.50337 
H          H       0.04582   0.16690   0.50337 
H          H       0.83310   0.87892   0.50337 
H          H       0.12108   0.95418   0.50337 
N          N       0.67966   0.66409   0.33754 
N          N       0.33591   0.01557   0.33754 
N          N       0.98443   0.32034   0.33754 
N          N       0.32034   0.33591   0.33754 
N          N       0.66409   0.98443   0.33754 
N          N       0.01557   0.67966   0.33754 
C          C       0.61405   0.64438   0.38292 
C          C       0.35562   0.96967   0.38292 
C          C       0.03033   0.38595   0.38292 
C          C       0.38595   0.35562   0.38292 
C          C       0.64438   0.03033   0.38292 
C          C       0.96967   0.61405   0.38292 
H          H       0.60440   0.68268   0.41814 
H          H       0.31732   0.92171   0.41814 
H          H       0.07829   0.39560   0.41814 
H          H       0.39560   0.31732   0.41814 
H          H       0.68268   0.07829   0.41814 
H          H       0.92171   0.60440   0.41814 
C          C       0.06517   0.06789   0.83553 
C          C       0.93211   0.99728   0.83553 
C          C       0.00272   0.93483   0.83553 
C          C       0.93483   0.93211   0.83553 
C          C       0.06789   0.00272   0.83553 
C          C       0.99728   0.06517   0.83553 
C          C       0.03731   0.85220   0.74276 
C          C       0.14780   0.18511   0.74276 
C          C       0.81489   0.96269   0.74276 
C          C       0.96269   0.14780   0.74276 
C          C       0.85220   0.81489   0.74276 
C          C       0.18511   0.03731   0.74276 
C          C       0.04110   0.78870   0.74560 
C          C       0.21130   0.25240   0.74560 
C          C       0.74760   0.95890   0.74560 
C          C       0.95890   0.21130   0.74560 
C          C       0.78870   0.74760   0.74560 
C          C       0.25240   0.04110   0.74560 
C          C       0.01080   0.74004   0.84051 
C          C       0.25996   0.27077   0.84051 
C          C       0.72923   0.98920   0.84051 
C          C       0.98920   0.25996   0.84051 
C          C       0.74004   0.72923   0.84051 
C          C       0.27077   0.01080   0.84051 
C          C       0.97840   0.75694   0.93449 
C          C       0.24306   0.22146   0.93449 
C          C       0.77854   0.02160   0.93449 
C          C       0.02160   0.24306   0.93449 
C          C       0.75694   0.77854   0.93449 
C          C       0.22146   0.97840   0.93449 
C          C       0.97673   0.82154   0.93330 
C          C       0.17846   0.15519   0.93330 
C          C       0.84481   0.02327   0.93330 
C          C       0.02327   0.17846   0.93330 
C          C       0.82154   0.84481   0.93330 
C          C       0.15519   0.97673   0.93330 
C          C       0.00545   0.86996   0.83691 
C          C       0.13004   0.13549   0.83691 
C          C       0.86450   0.99455   0.83691 
C          C       0.99455   0.13004   0.83691 
C          C       0.86996   0.86450   0.83691 
C          C       0.13549   0.00545   0.83691 
C          C       0.57260   0.01484   0.88031 
C          C       0.98515   0.55775   0.88031 
C          C       0.44225   0.42740   0.88031 
C          C       0.42740   0.98515   0.88031 
C          C       0.01484   0.44225   0.88031 
C          C       0.55775   0.57260   0.88031 
C          C       0.51468   0.94333   0.87923 
C          C       0.05667   0.57135   0.87923 
C          C       0.42865   0.48532   0.87923 
C          C       0.48532   0.05667   0.87923 
C          C       0.94333   0.42865   0.87923 
C          C       0.57135   0.51468   0.87923 
C          C       0.44309   0.92866   0.88052 
C          C       0.07134   0.51444   0.88052 
C          C       0.48556   0.55691   0.88052 
C          C       0.55691   0.07134   0.88052 
C          C       0.92866   0.48556   0.88052 
C          C       0.51444   0.44309   0.88052 
H          H       0.52434   0.90129   0.87878 
H          H       0.09871   0.62306   0.87878 
H          H       0.37694   0.47566   0.87878 
H          H       0.47566   0.09871   0.87878 
H          H       0.90129   0.37694   0.87878 
H          H       0.62306   0.52434   0.87878 
H          H       0.40249   0.87623   0.88106 
H          H       0.12377   0.52626   0.88106 
H          H       0.47374   0.59751   0.88106 
H          H       0.59751   0.12377   0.88106 
H          H       0.87623   0.47374   0.88106 
H          H       0.52626   0.40249   0.88106 
H          H       0.05840   0.88579   0.67173 
H          H       0.11421   0.17261   0.67173 
H          H       0.82739   0.94160   0.67173 
H          H       0.94160   0.11421   0.67173 
H          H       0.88579   0.82739   0.67173 
H          H       0.17261   0.05840   0.67173 
H          H       0.06554   0.77753   0.67759 
H          H       0.22246   0.28801   0.67759 
H          H       0.71199   0.93446   0.67759 
H          H       0.93446   0.22246   0.67759 
H          H       0.77753   0.71199   0.67759 
H          H       0.28801   0.06554   0.67759 
H          H       0.95676   0.72277   1.00491 
H          H       0.27723   0.23399   1.00491 
H          H       0.76601   0.04323   1.00491 
H          H       0.04323   0.27723   1.00491 
H          H       0.72277   0.76601   1.00491 
H          H       0.23399   0.95676   1.00491 
H          H       0.95418   0.83310   1.00337 
H          H       0.16690   0.12108   1.00337 
H          H       0.87892   0.04582   1.00337 
H          H       0.04582   0.16690   1.00337 
H          H       0.83310   0.87892   1.00337 
H          H       0.12108   0.95418   1.00337 
N          N       0.67966   0.66409   0.83754 
N          N       0.33591   0.01557   0.83754 
N          N       0.98443   0.32034   0.83754 
N          N       0.32034   0.33591   0.83754 
N          N       0.66409   0.98443   0.83754 
N          N       0.01557   0.67966   0.83754 
C          C       0.61405   0.64438   0.88292 
C          C       0.35562   0.96967   0.88292 
C          C       0.03033   0.38595   0.88292 
C          C       0.38595   0.35562   0.88292 
C          C       0.64438   0.03033   0.88292 
C          C       0.96967   0.61405   0.88292 
H          H       0.60440   0.68268   0.91814 
H          H       0.31732   0.92171   0.91814 
H          H       0.07829   0.39560   0.91814 
H          H       0.39560   0.31732   0.91814 
H          H       0.68268   0.07829   0.91814 
H          H       0.92171   0.60440   0.91814 
