data_crystal
 
_cell_length_a    21.49910
_cell_length_b    21.49910
_cell_length_c    5.63270
_cell_angle_alpha 90.00000
_cell_angle_beta  90.00000
_cell_angle_gamma 120.00000
 
_symmetry_space_group_name_Hall 'P 1'
_symmetry_space_group_name_H-M  'P 1'
 
loop_
_symmetry_equiv_pos_as_xyz
 'x,y,z' 
 
loop_
_atom_site_label
_atom_site_type_symbol
_atom_site_fract_x
_atom_site_fract_y
_atom_site_fract_z
_atom_site_charge
C          C       0.06517   0.06789   0.67106   0.0000000000
C          C       0.93211   0.99728   0.67106   0.0000000000
C          C       0.00272   0.93483   0.67106   0.0000000000
C          C       0.93483   0.93211   0.67106   0.0000000000
C          C       0.06789   0.00272   0.67106   0.0000000000
C          C       0.99728   0.06517   0.67106   0.0000000000
C          C       0.03731   0.85220   0.48552   0.0000000000
C          C       0.14780   0.18511   0.48552   0.0000000000
C          C       0.81489   0.96269   0.48552   0.0000000000
C          C       0.96269   0.14780   0.48552   0.0000000000
C          C       0.85220   0.81489   0.48552   0.0000000000
C          C       0.18511   0.03731   0.48552   0.0000000000
C          C       0.04110   0.78870   0.49119   0.0000000000
C          C       0.21130   0.25240   0.49119   0.0000000000
C          C       0.74760   0.95890   0.49119   0.0000000000
C          C       0.95890   0.21130   0.49119   0.0000000000
C          C       0.78870   0.74760   0.49119   0.0000000000
C          C       0.25240   0.04110   0.49119   0.0000000000
C          C       0.01080   0.74004   0.68102   0.0000000000
C          C       0.25996   0.27077   0.68102   0.0000000000
C          C       0.72923   0.98920   0.68102   0.0000000000
C          C       0.98920   0.25996   0.68102   0.0000000000
C          C       0.74004   0.72923   0.68102   0.0000000000
C          C       0.27077   0.01080   0.68102   0.0000000000
C          C       0.97840   0.75694   0.86899   0.0000000000
C          C       0.24306   0.22146   0.86899   0.0000000000
C          C       0.77854   0.02160   0.86899   0.0000000000
C          C       0.02160   0.24306   0.86899   0.0000000000
C          C       0.75694   0.77854   0.86899   0.0000000000
C          C       0.22146   0.97840   0.86899   0.0000000000
C          C       0.97673   0.82154   0.86659   0.0000000000
C          C       0.17846   0.15519   0.86659   0.0000000000
C          C       0.84481   0.02327   0.86659   0.0000000000
C          C       0.02327   0.17846   0.86659   0.0000000000
C          C       0.82154   0.84481   0.86659   0.0000000000
C          C       0.15519   0.97673   0.86659   0.0000000000
C          C       0.00545   0.86996   0.67382   0.0000000000
C          C       0.13004   0.13549   0.67382   0.0000000000
C          C       0.86450   0.99455   0.67382   0.0000000000
C          C       0.99455   0.13004   0.67382   0.0000000000
C          C       0.86996   0.86450   0.67382   0.0000000000
C          C       0.13549   0.00545   0.67382   0.0000000000
C          C       0.57260   0.01484   0.76062   0.0000000000
C          C       0.98515   0.55775   0.76062   0.0000000000
C          C       0.44225   0.42740   0.76062   0.0000000000
C          C       0.42740   0.98515   0.76062   0.0000000000
C          C       0.01484   0.44225   0.76062   0.0000000000
C          C       0.55775   0.57260   0.76062   0.0000000000
C          C       0.51468   0.94333   0.75847   0.0000000000
C          C       0.05667   0.57135   0.75847   0.0000000000
C          C       0.42865   0.48532   0.75847   0.0000000000
C          C       0.48532   0.05667   0.75847   0.0000000000
C          C       0.94333   0.42865   0.75847   0.0000000000
C          C       0.57135   0.51468   0.75847   0.0000000000
C          C       0.44309   0.92866   0.76103   0.0000000000
C          C       0.07134   0.51444   0.76103   0.0000000000
C          C       0.48556   0.55691   0.76103   0.0000000000
C          C       0.55691   0.07134   0.76103   0.0000000000
C          C       0.92866   0.48556   0.76103   0.0000000000
C          C       0.51444   0.44309   0.76103   0.0000000000
H          H       0.52434   0.90129   0.75755   0.0000000000
H          H       0.09871   0.62306   0.75755   0.0000000000
H          H       0.37694   0.47566   0.75755   0.0000000000
H          H       0.47566   0.09871   0.75755   0.0000000000
H          H       0.90129   0.37694   0.75755   0.0000000000
H          H       0.62306   0.52434   0.75755   0.0000000000
H          H       0.40249   0.87623   0.76212   0.0000000000
H          H       0.12377   0.52626   0.76212   0.0000000000
H          H       0.47374   0.59751   0.76212   0.0000000000
H          H       0.59751   0.12377   0.76212   0.0000000000
H          H       0.87623   0.47374   0.76212   0.0000000000
H          H       0.52626   0.40249   0.76212   0.0000000000
H          H       0.05840   0.88579   0.34346   0.0000000000
H          H       0.11421   0.17261   0.34346   0.0000000000
H          H       0.82739   0.94160   0.34346   0.0000000000
H          H       0.94160   0.11421   0.34346   0.0000000000
H          H       0.88579   0.82739   0.34346   0.0000000000
H          H       0.17261   0.05840   0.34346   0.0000000000
H          H       0.06554   0.77753   0.35519   0.0000000000
H          H       0.22246   0.28801   0.35519   0.0000000000
H          H       0.71199   0.93446   0.35519   0.0000000000
H          H       0.93446   0.22246   0.35519   0.0000000000
H          H       0.77753   0.71199   0.35519   0.0000000000
H          H       0.28801   0.06554   0.35519   0.0000000000
H          H       0.95676   0.72277   1.00981   0.0000000000
H          H       0.27723   0.23399   1.00981   0.0000000000
H          H       0.76601   0.04323   1.00981   0.0000000000
H          H       0.04323   0.27723   1.00981   0.0000000000
H          H       0.72277   0.76601   1.00981   0.0000000000
H          H       0.23399   0.95676   1.00981   0.0000000000
H          H       0.95418   0.83310   1.00674   0.0000000000
H          H       0.16690   0.12108   1.00674   0.0000000000
H          H       0.87892   0.04582   1.00674   0.0000000000
H          H       0.04582   0.16690   1.00674   0.0000000000
H          H       0.83310   0.87892   1.00674   0.0000000000
H          H       0.12108   0.95418   1.00674   0.0000000000
N          N       0.67966   0.66409   0.67508   0.0000000000
N          N       0.33591   0.01557   0.67508   0.0000000000
N          N       0.98443   0.32034   0.67508   0.0000000000
N          N       0.32034   0.33591   0.67508   0.0000000000
N          N       0.66409   0.98443   0.67508   0.0000000000
N          N       0.01557   0.67966   0.67508   0.0000000000
C          C       0.61405   0.64438   0.76584   0.0000000000
C          C       0.35562   0.96967   0.76584   0.0000000000
C          C       0.03033   0.38595   0.76584   0.0000000000
C          C       0.38595   0.35562   0.76584   0.0000000000
C          C       0.64438   0.03033   0.76584   0.0000000000
C          C       0.96967   0.61405   0.76584   0.0000000000
H          H       0.60440   0.68268   0.83628   0.0000000000
H          H       0.31732   0.92171   0.83628   0.0000000000
H          H       0.07829   0.39560   0.83628   0.0000000000
H          H       0.39560   0.31732   0.83628   0.0000000000
H          H       0.68268   0.07829   0.83628   0.0000000000
H          H       0.92171   0.60440   0.83628   0.0000000000
