data_crystal

_cell_length_a    40.61300
_cell_length_b    40.61300
_cell_length_c    7.04360
_cell_angle_alpha 90.00000
_cell_angle_beta  90.00000
_cell_angle_gamma 90.00000

_space_group_name_Hall 'P 1'
_space_group_name_H-M_alt  'P 1'

loop_
_symmetry_equiv_pos_as_xyz
'x,y,z' 

loop_
_atom_site_label
_atom_site_type_symbol
_atom_site_fract_x
_atom_site_fract_y
_atom_site_fract_z
C          C       0.48270   0.66087   0.25000 
C          C       0.53540   0.63138   0.25000 
C          C       0.51721   0.60176   0.25000 
C          C       0.52712   0.56897   0.25000 
C          C       0.51730   0.33913   0.25000 
C          C       0.46460   0.36862   0.25000 
C          C       0.48279   0.39824   0.25000 
C          C       0.47288   0.43103   0.25000 
C          C       0.33913   0.48270   0.25000 
C          C       0.36862   0.53540   0.25000 
C          C       0.39824   0.51721   0.25000 
C          C       0.43103   0.52712   0.25000 
C          C       0.66087   0.51730   0.25000 
C          C       0.63138   0.46460   0.25000 
C          C       0.60176   0.48279   0.25000 
C          C       0.56897   0.47288   0.25000 
C          C       0.51730   0.66087   0.25000 
C          C       0.46460   0.63138   0.25000 
C          C       0.48279   0.60176   0.25000 
C          C       0.47288   0.56897   0.25000 
C          C       0.48270   0.33913   0.25000 
C          C       0.53540   0.36862   0.25000 
C          C       0.51721   0.39824   0.25000 
C          C       0.52712   0.43103   0.25000 
C          C       0.66087   0.48270   0.25000 
C          C       0.63138   0.53540   0.25000 
C          C       0.60176   0.51721   0.25000 
C          C       0.56897   0.52712   0.25000 
C          C       0.33913   0.51730   0.25000 
C          C       0.36862   0.46460   0.25000 
C          C       0.39824   0.48279   0.25000 
C          C       0.43103   0.47288   0.25000 
O          O       0.52911   0.69185   0.25000 
O          O       0.47090   0.30815   0.25000 
O          O       0.30815   0.52911   0.25000 
O          O       0.69185   0.47090   0.25000 
O          O       0.47090   0.69185   0.25000 
O          O       0.52911   0.30815   0.25000 
O          O       0.69185   0.52911   0.25000 
O          O       0.30815   0.47090   0.25000 
H          H       0.56053   0.63174   0.25000 
H          H       0.43947   0.36826   0.25000 
H          H       0.36826   0.56053   0.25000 
H          H       0.63174   0.43947   0.25000 
H          H       0.43947   0.63174   0.25000 
H          H       0.56053   0.36826   0.25000 
H          H       0.63174   0.56053   0.25000 
H          H       0.36826   0.43947   0.25000 
N          N       0.55867   0.55867   0.25000 
N          N       0.44133   0.44133   0.25000 
N          N       0.44133   0.55867   0.25000 
N          N       0.55867   0.44133   0.25000 
B          B       0.50000   0.71219   0.25000 
B          B       0.50000   0.28781   0.25000 
B          B       0.28781   0.50000   0.25000 
B          B       0.71219   0.50000   0.25000 
C          C       0.98240   0.46959   0.25000 
C          C       0.03649   0.55979   0.25000 
C          C       0.07089   0.55942   0.25000 
C          C       0.08880   0.52959   0.25000 
C          C       0.12392   0.47157   0.25000 
H          H       0.02604   0.58252   0.25000 
H          H       0.08298   0.58157   0.25000 
O          O       0.13629   0.44343   0.25000 
C          C       0.80158   0.52901   0.25000 
C          C       0.76685   0.52948   0.25000 
H          H       0.81099   0.55193   0.25000 
H          H       0.75461   0.55164   0.25000 
C          C       0.01760   0.53041   0.25000 
C          C       0.96351   0.44021   0.25000 
C          C       0.92911   0.44058   0.25000 
C          C       0.91120   0.47041   0.25000 
C          C       0.87608   0.52843   0.25000 
H          H       0.97396   0.41748   0.25000 
H          H       0.91702   0.41843   0.25000 
O          O       0.86371   0.55657   0.25000 
C          C       0.19842   0.47099   0.25000 
C          C       0.23315   0.47052   0.25000 
H          H       0.18901   0.44807   0.25000 
H          H       0.24539   0.44836   0.25000 
C          C       0.53041   0.98240   0.25000 
C          C       0.44021   0.03649   0.25000 
C          C       0.44058   0.07089   0.25000 
C          C       0.47041   0.08880   0.25000 
C          C       0.52843   0.12392   0.25000 
H          H       0.41748   0.02604   0.25000 
H          H       0.41843   0.08298   0.25000 
O          O       0.55657   0.13629   0.25000 
C          C       0.47099   0.80158   0.25000 
C          C       0.47052   0.76685   0.25000 
H          H       0.44807   0.81099   0.25000 
H          H       0.44836   0.75461   0.25000 
C          C       0.46959   0.01760   0.25000 
C          C       0.55979   0.96351   0.25000 
C          C       0.55942   0.92911   0.25000 
C          C       0.52959   0.91120   0.25000 
C          C       0.47157   0.87608   0.25000 
H          H       0.58252   0.97396   0.25000 
H          H       0.58157   0.91702   0.25000 
O          O       0.44343   0.86371   0.25000 
C          C       0.52901   0.19842   0.25000 
C          C       0.52948   0.23315   0.25000 
H          H       0.55193   0.18901   0.25000 
H          H       0.55164   0.24539   0.25000 
C          C       0.01760   0.46959   0.25000 
C          C       0.96351   0.55979   0.25000 
C          C       0.92911   0.55942   0.25000 
C          C       0.91120   0.52959   0.25000 
C          C       0.87608   0.47157   0.25000 
H          H       0.97396   0.58252   0.25000 
H          H       0.91702   0.58157   0.25000 
O          O       0.86371   0.44343   0.25000 
C          C       0.19842   0.52901   0.25000 
C          C       0.23315   0.52948   0.25000 
H          H       0.18901   0.55193   0.25000 
H          H       0.24539   0.55164   0.25000 
C          C       0.98240   0.53041   0.25000 
C          C       0.03649   0.44021   0.25000 
C          C       0.07089   0.44058   0.25000 
C          C       0.08880   0.47041   0.25000 
C          C       0.12392   0.52843   0.25000 
H          H       0.02604   0.41748   0.25000 
H          H       0.08298   0.41843   0.25000 
O          O       0.13629   0.55657   0.25000 
C          C       0.80158   0.47099   0.25000 
C          C       0.76685   0.47052   0.25000 
H          H       0.81099   0.44807   0.25000 
H          H       0.75461   0.44836   0.25000 
C          C       0.46959   0.98240   0.25000 
C          C       0.55979   0.03649   0.25000 
C          C       0.55942   0.07089   0.25000 
C          C       0.52959   0.08880   0.25000 
C          C       0.47157   0.12392   0.25000 
H          H       0.58252   0.02604   0.25000 
H          H       0.58157   0.08298   0.25000 
O          O       0.44343   0.13629   0.25000 
C          C       0.52901   0.80158   0.25000 
C          C       0.52948   0.76685   0.25000 
H          H       0.55193   0.81099   0.25000 
H          H       0.55164   0.75461   0.25000 
C          C       0.53041   0.01760   0.25000 
C          C       0.44021   0.96351   0.25000 
C          C       0.44058   0.92911   0.25000 
C          C       0.47041   0.91120   0.25000 
C          C       0.52843   0.87608   0.25000 
H          H       0.41748   0.97396   0.25000 
H          H       0.41843   0.91702   0.25000 
O          O       0.55657   0.86371   0.25000 
C          C       0.47099   0.19842   0.25000 
C          C       0.47052   0.23315   0.25000 
H          H       0.44807   0.18901   0.25000 
H          H       0.44836   0.24539   0.25000 
C          C       0.96479   0.50000   0.25000 
C          C       0.07061   0.50000   0.25000 
N          N       0.14311   0.50000   0.25000 
C          C       0.17810   0.50000   0.25000 
C          C       0.74890   0.50000   0.25000 
C          C       0.03521   0.50000   0.25000 
C          C       0.92940   0.50000   0.25000 
N          N       0.85689   0.50000   0.25000 
C          C       0.82190   0.50000   0.25000 
C          C       0.25110   0.50000   0.25000 
C          C       0.50000   0.96479   0.25000 
C          C       0.50000   0.07061   0.25000 
N          N       0.50000   0.14311   0.25000 
C          C       0.50000   0.17810   0.25000 
C          C       0.50000   0.74890   0.25000 
C          C       0.50000   0.03521   0.25000 
C          C       0.50000   0.92940   0.25000 
N          N       0.50000   0.85689   0.25000 
C          C       0.50000   0.82190   0.25000 
C          C       0.50000   0.25110   0.25000 
Cu         Cu      0.50000   0.50000   0.25000 
N          N       0.50000   0.54993   0.25000 
N          N       0.50000   0.45007   0.25000 
N          N       0.45007   0.50000   0.25000 
N          N       0.54993   0.50000   0.25000 
C          C       0.48270   0.66087   0.75000 
C          C       0.53540   0.63138   0.75000 
C          C       0.51721   0.60176   0.75000 
C          C       0.52712   0.56897   0.75000 
C          C       0.51730   0.33913   0.75000 
C          C       0.46460   0.36862   0.75000 
C          C       0.48279   0.39824   0.75000 
C          C       0.47288   0.43103   0.75000 
C          C       0.33913   0.48270   0.75000 
C          C       0.36862   0.53540   0.75000 
C          C       0.39824   0.51721   0.75000 
C          C       0.43103   0.52712   0.75000 
C          C       0.66087   0.51730   0.75000 
C          C       0.63138   0.46460   0.75000 
C          C       0.60176   0.48279   0.75000 
C          C       0.56897   0.47288   0.75000 
C          C       0.51730   0.66087   0.75000 
C          C       0.46460   0.63138   0.75000 
C          C       0.48279   0.60176   0.75000 
C          C       0.47288   0.56897   0.75000 
C          C       0.48270   0.33913   0.75000 
C          C       0.53540   0.36862   0.75000 
C          C       0.51721   0.39824   0.75000 
C          C       0.52712   0.43103   0.75000 
C          C       0.66087   0.48270   0.75000 
C          C       0.63138   0.53540   0.75000 
C          C       0.60176   0.51721   0.75000 
C          C       0.56897   0.52712   0.75000 
C          C       0.33913   0.51730   0.75000 
C          C       0.36862   0.46460   0.75000 
C          C       0.39824   0.48279   0.75000 
C          C       0.43103   0.47288   0.75000 
O          O       0.52911   0.69185   0.75000 
O          O       0.47090   0.30815   0.75000 
O          O       0.30815   0.52911   0.75000 
O          O       0.69185   0.47090   0.75000 
O          O       0.47090   0.69185   0.75000 
O          O       0.52911   0.30815   0.75000 
O          O       0.69185   0.52911   0.75000 
O          O       0.30815   0.47090   0.75000 
H          H       0.56053   0.63174   0.75000 
H          H       0.43947   0.36826   0.75000 
H          H       0.36826   0.56053   0.75000 
H          H       0.63174   0.43947   0.75000 
H          H       0.43947   0.63174   0.75000 
H          H       0.56053   0.36826   0.75000 
H          H       0.63174   0.56053   0.75000 
H          H       0.36826   0.43947   0.75000 
N          N       0.55867   0.55867   0.75000 
N          N       0.44133   0.44133   0.75000 
N          N       0.44133   0.55867   0.75000 
N          N       0.55867   0.44133   0.75000 
B          B       0.50000   0.71219   0.75000 
B          B       0.50000   0.28781   0.75000 
B          B       0.28781   0.50000   0.75000 
B          B       0.71219   0.50000   0.75000 
C          C       0.98240   0.46959   0.75000 
C          C       0.03649   0.55979   0.75000 
C          C       0.07089   0.55942   0.75000 
C          C       0.08880   0.52959   0.75000 
C          C       0.12392   0.47157   0.75000 
H          H       0.02604   0.58252   0.75000 
H          H       0.08298   0.58157   0.75000 
O          O       0.13629   0.44343   0.75000 
C          C       0.80158   0.52901   0.75000 
C          C       0.76685   0.52948   0.75000 
H          H       0.81099   0.55193   0.75000 
H          H       0.75461   0.55164   0.75000 
C          C       0.01760   0.53041   0.75000 
C          C       0.96351   0.44021   0.75000 
C          C       0.92911   0.44058   0.75000 
C          C       0.91120   0.47041   0.75000 
C          C       0.87608   0.52843   0.75000 
H          H       0.97396   0.41748   0.75000 
H          H       0.91702   0.41843   0.75000 
O          O       0.86371   0.55657   0.75000 
C          C       0.19842   0.47099   0.75000 
C          C       0.23315   0.47052   0.75000 
H          H       0.18901   0.44807   0.75000 
H          H       0.24539   0.44836   0.75000 
C          C       0.53041   0.98240   0.75000 
C          C       0.44021   0.03649   0.75000 
C          C       0.44058   0.07089   0.75000 
C          C       0.47041   0.08880   0.75000 
C          C       0.52843   0.12392   0.75000 
H          H       0.41748   0.02604   0.75000 
H          H       0.41843   0.08298   0.75000 
O          O       0.55657   0.13629   0.75000 
C          C       0.47099   0.80158   0.75000 
C          C       0.47052   0.76685   0.75000 
H          H       0.44807   0.81099   0.75000 
H          H       0.44836   0.75461   0.75000 
C          C       0.46959   0.01760   0.75000 
C          C       0.55979   0.96351   0.75000 
C          C       0.55942   0.92911   0.75000 
C          C       0.52959   0.91120   0.75000 
C          C       0.47157   0.87608   0.75000 
H          H       0.58252   0.97396   0.75000 
H          H       0.58157   0.91702   0.75000 
O          O       0.44343   0.86371   0.75000 
C          C       0.52901   0.19842   0.75000 
C          C       0.52948   0.23315   0.75000 
H          H       0.55193   0.18901   0.75000 
H          H       0.55164   0.24539   0.75000 
C          C       0.01760   0.46959   0.75000 
C          C       0.96351   0.55979   0.75000 
C          C       0.92911   0.55942   0.75000 
C          C       0.91120   0.52959   0.75000 
C          C       0.87608   0.47157   0.75000 
H          H       0.97396   0.58252   0.75000 
H          H       0.91702   0.58157   0.75000 
O          O       0.86371   0.44343   0.75000 
C          C       0.19842   0.52901   0.75000 
C          C       0.23315   0.52948   0.75000 
H          H       0.18901   0.55193   0.75000 
H          H       0.24539   0.55164   0.75000 
C          C       0.98240   0.53041   0.75000 
C          C       0.03649   0.44021   0.75000 
C          C       0.07089   0.44058   0.75000 
C          C       0.08880   0.47041   0.75000 
C          C       0.12392   0.52843   0.75000 
H          H       0.02604   0.41748   0.75000 
H          H       0.08298   0.41843   0.75000 
O          O       0.13629   0.55657   0.75000 
C          C       0.80158   0.47099   0.75000 
C          C       0.76685   0.47052   0.75000 
H          H       0.81099   0.44807   0.75000 
H          H       0.75461   0.44836   0.75000 
C          C       0.46959   0.98240   0.75000 
C          C       0.55979   0.03649   0.75000 
C          C       0.55942   0.07089   0.75000 
C          C       0.52959   0.08880   0.75000 
C          C       0.47157   0.12392   0.75000 
H          H       0.58252   0.02604   0.75000 
H          H       0.58157   0.08298   0.75000 
O          O       0.44343   0.13629   0.75000 
C          C       0.52901   0.80158   0.75000 
C          C       0.52948   0.76685   0.75000 
H          H       0.55193   0.81099   0.75000 
H          H       0.55164   0.75461   0.75000 
C          C       0.53041   0.01760   0.75000 
C          C       0.44021   0.96351   0.75000 
C          C       0.44058   0.92911   0.75000 
C          C       0.47041   0.91120   0.75000 
C          C       0.52843   0.87608   0.75000 
H          H       0.41748   0.97396   0.75000 
H          H       0.41843   0.91702   0.75000 
O          O       0.55657   0.86371   0.75000 
C          C       0.47099   0.19842   0.75000 
C          C       0.47052   0.23315   0.75000 
H          H       0.44807   0.18901   0.75000 
H          H       0.44836   0.24539   0.75000 
C          C       0.96479   0.50000   0.75000 
C          C       0.07061   0.50000   0.75000 
N          N       0.14311   0.50000   0.75000 
C          C       0.17810   0.50000   0.75000 
C          C       0.74890   0.50000   0.75000 
C          C       0.03521   0.50000   0.75000 
C          C       0.92940   0.50000   0.75000 
N          N       0.85689   0.50000   0.75000 
C          C       0.82190   0.50000   0.75000 
C          C       0.25110   0.50000   0.75000 
C          C       0.50000   0.96479   0.75000 
C          C       0.50000   0.07061   0.75000 
N          N       0.50000   0.14311   0.75000 
C          C       0.50000   0.17810   0.75000 
C          C       0.50000   0.74890   0.75000 
C          C       0.50000   0.03521   0.75000 
C          C       0.50000   0.92940   0.75000 
N          N       0.50000   0.85689   0.75000 
C          C       0.50000   0.82190   0.75000 
C          C       0.50000   0.25110   0.75000 
Cu         Cu      0.50000   0.50000   0.75000 
N          N       0.50000   0.54993   0.75000 
N          N       0.50000   0.45007   0.75000 
N          N       0.45007   0.50000   0.75000 
N          N       0.54993   0.50000   0.75000 
