data_crystal
 
_cell_length_a    35.91640
_cell_length_b    35.89730
_cell_length_c    7.20000
_cell_angle_alpha 90.00000
_cell_angle_beta  90.00000
_cell_angle_gamma 90.32200
 
_symmetry_space_group_name_Hall 'P 1'
_symmetry_space_group_name_H-M  'P 1'
 
loop_
_symmetry_equiv_pos_as_xyz
 'x,y,z' 
 
loop_
_atom_site_label
_atom_site_type_symbol
_atom_site_fract_x
_atom_site_fract_y
_atom_site_fract_z
_atom_site_charge
C          C       0.48198   0.68198   0.69444   0.0000000000
C          C       0.54107   0.64973   0.69444   0.0000000000
C          C       0.52051   0.61684   0.69444   0.0000000000
C          C       0.53329   0.57899   0.69444   0.0000000000
O          O       0.53179   0.71633   0.69444   0.0000000000
H          H       0.57062   0.64994   0.69444   0.0000000000
C          C       0.31761   0.48132   0.69444   0.0000000000
C          C       0.35053   0.54052   0.69444   0.0000000000
C          C       0.38321   0.51999   0.69444   0.0000000000
C          C       0.42153   0.53302   0.69444   0.0000000000
O          O       0.28389   0.53121   0.69444   0.0000000000
H          H       0.35061   0.57005   0.69444   0.0000000000
N          N       0.56744   0.56940   0.69444   0.0000000000
C          C       0.51802   0.31801   0.69444   0.0000000000
C          C       0.45893   0.35026   0.69444   0.0000000000
C          C       0.47949   0.38315   0.69444   0.0000000000
C          C       0.46671   0.42103   0.69444   0.0000000000
O          O       0.46821   0.28366   0.69444   0.0000000000
H          H       0.42938   0.35006   0.69444   0.0000000000
C          C       0.68239   0.51868   0.69444   0.0000000000
C          C       0.64947   0.45948   0.69444   0.0000000000
C          C       0.61679   0.48004   0.69444   0.0000000000
C          C       0.57847   0.46698   0.69444   0.0000000000
O          O       0.71611   0.46881   0.69444   0.0000000000
H          H       0.64939   0.42995   0.69444   0.0000000000
N          N       0.43256   0.43059   0.69444   0.0000000000
C          C       0.52035   0.68231   0.69444   0.0000000000
C          C       0.46141   0.64906   0.69444   0.0000000000
C          C       0.48217   0.61652   0.69444   0.0000000000
C          C       0.46961   0.57843   0.69444   0.0000000000
O          O       0.47034   0.71579   0.69444   0.0000000000
H          H       0.43187   0.64878   0.69444   0.0000000000
C          C       0.68225   0.48026   0.69444   0.0000000000
C          C       0.64975   0.53932   0.69444   0.0000000000
C          C       0.61694   0.51862   0.69444   0.0000000000
C          C       0.57872   0.53150   0.69444   0.0000000000
O          O       0.71634   0.53029   0.69444   0.0000000000
H          H       0.64985   0.56885   0.69444   0.0000000000
N          N       0.43180   0.56721   0.69444   0.0000000000
C          C       0.47966   0.31769   0.69444   0.0000000000
C          C       0.53859   0.35093   0.69444   0.0000000000
C          C       0.51783   0.38348   0.69444   0.0000000000
C          C       0.53039   0.42157   0.69444   0.0000000000
O          O       0.52967   0.28420   0.69444   0.0000000000
H          H       0.56813   0.35122   0.69444   0.0000000000
C          C       0.31775   0.51973   0.69444   0.0000000000
C          C       0.35026   0.46068   0.69444   0.0000000000
C          C       0.38307   0.48137   0.69444   0.0000000000
C          C       0.42128   0.46850   0.69444   0.0000000000
O          O       0.28367   0.46973   0.69444   0.0000000000
H          H       0.35012   0.43115   0.69444   0.0000000000
N          N       0.56820   0.43279   0.69444   0.0000000000
B          B       0.50098   0.73753   0.69444   0.0000000000
N          N       0.50156   0.55297   0.69444   0.0000000000
B          B       0.49902   0.26247   0.69444   0.0000000000
N          N       0.49845   0.44703   0.69444   0.0000000000
B          B       0.26234   0.50041   0.69444   0.0000000000
N          N       0.44438   0.50080   0.69444   0.0000000000
B          B       0.73766   0.49958   0.69444   0.0000000000
N          N       0.55562   0.49922   0.69444   0.0000000000
C          C       0.01976   0.50003   0.69444   0.0000000000
C          C       0.02003   0.56656   0.69444   0.0000000000
C          C       0.01949   0.43349   0.69444   0.0000000000
C          C       0.03960   0.53332   0.69444   0.0000000000
C          C       0.07885   0.53339   0.69444   0.0000000000
C          C       0.03933   0.46679   0.69444   0.0000000000
C          C       0.07858   0.46686   0.69444   0.0000000000
C          C       0.14004   0.50022   0.69444   0.0000000000
C          C       0.16122   0.53352   0.69444   0.0000000000
C          C       0.20026   0.53358   0.69444   0.0000000000
C          C       0.16095   0.46698   0.69444   0.0000000000
C          C       0.19999   0.46705   0.69444   0.0000000000
C          C       0.22033   0.50034   0.69444   0.0000000000
O          O       0.09551   0.56408   0.69444   0.0000000000
O          O       0.09499   0.43621   0.69444   0.0000000000
N          N       0.09869   0.50015   0.69444   0.0000000000
H          H       0.03527   0.59281   0.69444   0.0000000000
H          H       0.14728   0.56031   0.69444   0.0000000000
H          H       0.21550   0.55983   0.69444   0.0000000000
H          H       0.03452   0.40729   0.69444   0.0000000000
H          H       0.14679   0.44014   0.69444   0.0000000000
H          H       0.21502   0.44085   0.69444   0.0000000000
C          C       0.98024   0.49997   0.69444   0.0000000000
C          C       0.97997   0.43343   0.69444   0.0000000000
C          C       0.98051   0.56650   0.69444   0.0000000000
C          C       0.96041   0.46667   0.69444   0.0000000000
C          C       0.92115   0.46661   0.69444   0.0000000000
C          C       0.96067   0.53320   0.69444   0.0000000000
C          C       0.92142   0.53314   0.69444   0.0000000000
C          C       0.85996   0.49978   0.69444   0.0000000000
C          C       0.83878   0.46648   0.69444   0.0000000000
C          C       0.79974   0.46642   0.69444   0.0000000000
C          C       0.83905   0.53301   0.69444   0.0000000000
C          C       0.80001   0.53295   0.69444   0.0000000000
C          C       0.77967   0.49965   0.69444   0.0000000000
O          O       0.90449   0.43591   0.69444   0.0000000000
O          O       0.90501   0.56378   0.69444   0.0000000000
N          N       0.90132   0.49984   0.69444   0.0000000000
H          H       0.96473   0.40718   0.69444   0.0000000000
H          H       0.85272   0.43968   0.69444   0.0000000000
H          H       0.78450   0.44017   0.69444   0.0000000000
H          H       0.96548   0.59270   0.69444   0.0000000000
H          H       0.85321   0.55985   0.69444   0.0000000000
H          H       0.78498   0.55915   0.69444   0.0000000000
C          C       0.49993   0.01977   0.69444   0.0000000000
C          C       0.43343   0.01914   0.69444   0.0000000000
C          C       0.56643   0.02039   0.69444   0.0000000000
C          C       0.46661   0.03917   0.69444   0.0000000000
C          C       0.46646   0.07844   0.69444   0.0000000000
C          C       0.53310   0.03979   0.69444   0.0000000000
C          C       0.53295   0.07906   0.69444   0.0000000000
C          C       0.49948   0.14011   0.69444   0.0000000000
C          C       0.46615   0.16085   0.69444   0.0000000000
C          C       0.46601   0.19991   0.69444   0.0000000000
C          C       0.53265   0.16148   0.69444   0.0000000000
C          C       0.53250   0.20054   0.69444   0.0000000000
C          C       0.49918   0.22044   0.69444   0.0000000000
O          O       0.43574   0.09470   0.69444   0.0000000000
O          O       0.56355   0.09590   0.69444   0.0000000000
N          N       0.49963   0.09873   0.69444   0.0000000000
H          H       0.40716   0.03404   0.69444   0.0000000000
H          H       0.43940   0.14654   0.69444   0.0000000000
H          H       0.43974   0.21481   0.69444   0.0000000000
H          H       0.59258   0.03577   0.69444   0.0000000000
H          H       0.55950   0.14767   0.69444   0.0000000000
H          H       0.55865   0.21592   0.69444   0.0000000000
C          C       0.50008   0.98023   0.69444   0.0000000000
C          C       0.56658   0.98085   0.69444   0.0000000000
C          C       0.43357   0.97960   0.69444   0.0000000000
C          C       0.53340   0.96083   0.69444   0.0000000000
C          C       0.53354   0.92156   0.69444   0.0000000000
C          C       0.46690   0.96020   0.69444   0.0000000000
C          C       0.46705   0.92093   0.69444   0.0000000000
C          C       0.50052   0.85989   0.69444   0.0000000000
C          C       0.53385   0.83914   0.69444   0.0000000000
C          C       0.53400   0.80008   0.69444   0.0000000000
C          C       0.46736   0.83852   0.69444   0.0000000000
C          C       0.46750   0.79946   0.69444   0.0000000000
C          C       0.50082   0.77955   0.69444   0.0000000000
O          O       0.56426   0.90529   0.69444   0.0000000000
O          O       0.43646   0.90410   0.69444   0.0000000000
N          N       0.50037   0.90126   0.69444   0.0000000000
H          H       0.59284   0.96596   0.69444   0.0000000000
H          H       0.56060   0.85345   0.69444   0.0000000000
H          H       0.56026   0.78519   0.69444   0.0000000000
H          H       0.40742   0.96422   0.69444   0.0000000000
H          H       0.44050   0.85233   0.69444   0.0000000000
H          H       0.44135   0.78407   0.69444   0.0000000000
Ni         Ni      0.50000   0.50000   0.19500   0.0000000000
C          C       0.48198   0.68198   1.19444   0.0000000000
C          C       0.54107   0.64973   1.19444   0.0000000000
C          C       0.52051   0.61684   1.19444   0.0000000000
C          C       0.53329   0.57899   1.19444   0.0000000000
O          O       0.53179   0.71633   1.19444   0.0000000000
H          H       0.57062   0.64994   1.19444   0.0000000000
C          C       0.31761   0.48132   1.19444   0.0000000000
C          C       0.35053   0.54052   1.19444   0.0000000000
C          C       0.38321   0.51999   1.19444   0.0000000000
C          C       0.42153   0.53302   1.19444   0.0000000000
O          O       0.28389   0.53121   1.19444   0.0000000000
H          H       0.35061   0.57005   1.19444   0.0000000000
N          N       0.56744   0.56940   1.19444   0.0000000000
C          C       0.51802   0.31801   1.19444   0.0000000000
C          C       0.45893   0.35026   1.19444   0.0000000000
C          C       0.47949   0.38315   1.19444   0.0000000000
C          C       0.46671   0.42103   1.19444   0.0000000000
O          O       0.46821   0.28366   1.19444   0.0000000000
H          H       0.42938   0.35006   1.19444   0.0000000000
C          C       0.68239   0.51868   1.19444   0.0000000000
C          C       0.64947   0.45948   1.19444   0.0000000000
C          C       0.61679   0.48004   1.19444   0.0000000000
C          C       0.57847   0.46698   1.19444   0.0000000000
O          O       0.71611   0.46881   1.19444   0.0000000000
H          H       0.64939   0.42995   1.19444   0.0000000000
N          N       0.43256   0.43059   1.19444   0.0000000000
C          C       0.52035   0.68231   1.19444   0.0000000000
C          C       0.46141   0.64906   1.19444   0.0000000000
C          C       0.48217   0.61652   1.19444   0.0000000000
C          C       0.46961   0.57843   1.19444   0.0000000000
O          O       0.47034   0.71579   1.19444   0.0000000000
H          H       0.43187   0.64878   1.19444   0.0000000000
C          C       0.68225   0.48026   1.19444   0.0000000000
C          C       0.64975   0.53932   1.19444   0.0000000000
C          C       0.61694   0.51862   1.19444   0.0000000000
C          C       0.57872   0.53150   1.19444   0.0000000000
O          O       0.71634   0.53029   1.19444   0.0000000000
H          H       0.64985   0.56885   1.19444   0.0000000000
N          N       0.43180   0.56721   1.19444   0.0000000000
C          C       0.47966   0.31769   1.19444   0.0000000000
C          C       0.53859   0.35093   1.19444   0.0000000000
C          C       0.51783   0.38348   1.19444   0.0000000000
C          C       0.53039   0.42157   1.19444   0.0000000000
O          O       0.52967   0.28420   1.19444   0.0000000000
H          H       0.56813   0.35122   1.19444   0.0000000000
C          C       0.31775   0.51973   1.19444   0.0000000000
C          C       0.35026   0.46068   1.19444   0.0000000000
C          C       0.38307   0.48137   1.19444   0.0000000000
C          C       0.42128   0.46850   1.19444   0.0000000000
O          O       0.28367   0.46973   1.19444   0.0000000000
H          H       0.35012   0.43115   1.19444   0.0000000000
N          N       0.56820   0.43279   1.19444   0.0000000000
B          B       0.50098   0.73753   1.19444   0.0000000000
N          N       0.50156   0.55297   1.19444   0.0000000000
B          B       0.49902   0.26247   1.19444   0.0000000000
N          N       0.49845   0.44703   1.19444   0.0000000000
B          B       0.26234   0.50041   1.19444   0.0000000000
N          N       0.44438   0.50080   1.19444   0.0000000000
B          B       0.73766   0.49958   1.19444   0.0000000000
N          N       0.55562   0.49922   1.19444   0.0000000000
C          C       0.01976   0.50003   1.19444   0.0000000000
C          C       0.02003   0.56656   1.19444   0.0000000000
C          C       0.01949   0.43349   1.19444   0.0000000000
C          C       0.03960   0.53332   1.19444   0.0000000000
C          C       0.07885   0.53339   1.19444   0.0000000000
C          C       0.03933   0.46679   1.19444   0.0000000000
C          C       0.07858   0.46686   1.19444   0.0000000000
C          C       0.14004   0.50022   1.19444   0.0000000000
C          C       0.16122   0.53352   1.19444   0.0000000000
C          C       0.20026   0.53358   1.19444   0.0000000000
C          C       0.16095   0.46698   1.19444   0.0000000000
C          C       0.19999   0.46705   1.19444   0.0000000000
C          C       0.22033   0.50034   1.19444   0.0000000000
O          O       0.09551   0.56408   1.19444   0.0000000000
O          O       0.09499   0.43621   1.19444   0.0000000000
N          N       0.09869   0.50015   1.19444   0.0000000000
H          H       0.03527   0.59281   1.19444   0.0000000000
H          H       0.14728   0.56031   1.19444   0.0000000000
H          H       0.21550   0.55983   1.19444   0.0000000000
H          H       0.03452   0.40729   1.19444   0.0000000000
H          H       0.14679   0.44014   1.19444   0.0000000000
H          H       0.21502   0.44085   1.19444   0.0000000000
C          C       0.98024   0.49997   1.19444   0.0000000000
C          C       0.97997   0.43343   1.19444   0.0000000000
C          C       0.98051   0.56650   1.19444   0.0000000000
C          C       0.96041   0.46667   1.19444   0.0000000000
C          C       0.92115   0.46661   1.19444   0.0000000000
C          C       0.96067   0.53320   1.19444   0.0000000000
C          C       0.92142   0.53314   1.19444   0.0000000000
C          C       0.85996   0.49978   1.19444   0.0000000000
C          C       0.83878   0.46648   1.19444   0.0000000000
C          C       0.79974   0.46642   1.19444   0.0000000000
C          C       0.83905   0.53301   1.19444   0.0000000000
C          C       0.80001   0.53295   1.19444   0.0000000000
C          C       0.77967   0.49965   1.19444   0.0000000000
O          O       0.90449   0.43591   1.19444   0.0000000000
O          O       0.90501   0.56378   1.19444   0.0000000000
N          N       0.90132   0.49984   1.19444   0.0000000000
H          H       0.96473   0.40718   1.19444   0.0000000000
H          H       0.85272   0.43968   1.19444   0.0000000000
H          H       0.78450   0.44017   1.19444   0.0000000000
H          H       0.96548   0.59270   1.19444   0.0000000000
H          H       0.85321   0.55985   1.19444   0.0000000000
H          H       0.78498   0.55915   1.19444   0.0000000000
C          C       0.49993   0.01977   1.19444   0.0000000000
C          C       0.43343   0.01914   1.19444   0.0000000000
C          C       0.56643   0.02039   1.19444   0.0000000000
C          C       0.46661   0.03917   1.19444   0.0000000000
C          C       0.46646   0.07844   1.19444   0.0000000000
C          C       0.53310   0.03979   1.19444   0.0000000000
C          C       0.53295   0.07906   1.19444   0.0000000000
C          C       0.49948   0.14011   1.19444   0.0000000000
C          C       0.46615   0.16085   1.19444   0.0000000000
C          C       0.46601   0.19991   1.19444   0.0000000000
C          C       0.53265   0.16148   1.19444   0.0000000000
C          C       0.53250   0.20054   1.19444   0.0000000000
C          C       0.49918   0.22044   1.19444   0.0000000000
O          O       0.43574   0.09470   1.19444   0.0000000000
O          O       0.56355   0.09590   1.19444   0.0000000000
N          N       0.49963   0.09873   1.19444   0.0000000000
H          H       0.40716   0.03404   1.19444   0.0000000000
H          H       0.43940   0.14654   1.19444   0.0000000000
H          H       0.43974   0.21481   1.19444   0.0000000000
H          H       0.59258   0.03577   1.19444   0.0000000000
H          H       0.55950   0.14767   1.19444   0.0000000000
H          H       0.55865   0.21592   1.19444   0.0000000000
C          C       0.50008   0.98023   1.19444   0.0000000000
C          C       0.56658   0.98085   1.19444   0.0000000000
C          C       0.43357   0.97960   1.19444   0.0000000000
C          C       0.53340   0.96083   1.19444   0.0000000000
C          C       0.53354   0.92156   1.19444   0.0000000000
C          C       0.46690   0.96020   1.19444   0.0000000000
C          C       0.46705   0.92093   1.19444   0.0000000000
C          C       0.50052   0.85989   1.19444   0.0000000000
C          C       0.53385   0.83914   1.19444   0.0000000000
C          C       0.53400   0.80008   1.19444   0.0000000000
C          C       0.46736   0.83852   1.19444   0.0000000000
C          C       0.46750   0.79946   1.19444   0.0000000000
C          C       0.50082   0.77955   1.19444   0.0000000000
O          O       0.56426   0.90529   1.19444   0.0000000000
O          O       0.43646   0.90410   1.19444   0.0000000000
N          N       0.50037   0.90126   1.19444   0.0000000000
H          H       0.59284   0.96596   1.19444   0.0000000000
H          H       0.56060   0.85345   1.19444   0.0000000000
H          H       0.56026   0.78519   1.19444   0.0000000000
H          H       0.40742   0.96422   1.19444   0.0000000000
H          H       0.44050   0.85233   1.19444   0.0000000000
H          H       0.44135   0.78407   1.19444   0.0000000000
Ni         Ni      0.50000   0.50000   0.69500   0.0000000000
