data_nchem.NPN-1
_audit_creation_date              0000-00-00
_audit_creation_method            'LanYouShi'
_symmetry_space_group_name_H-M    'P1'
_cell_length_a                    13.1545000
_cell_length_b                    13.1545000
_cell_length_c                    7.9818001
_cell_angle_alpha                 90.0000000
_cell_angle_beta                  90.0000000
_cell_angle_gamma                 90.0000000
loop_
_atom_site_label
_atom_site_type_symbol
_atom_site_fract_x
_atom_site_fract_y
_atom_site_fract_z
_atom_site_U_iso_or_equiv
_atom_site_adp_type
_atom_site_occupancy
        C1          C  0.0577000  0.9241000  0.8891000    0.00000       Uiso       1.00
        C2          C  0.1060000  0.9573000  0.7423000    0.00000       Uiso       1.00
        H1          H  0.1024000  0.0275000  0.7152000    0.00000       Uiso       1.00
        C3          C  0.1575000  0.8954000  0.6369000    0.00000       Uiso       1.00
        H2          H  0.1899000  0.9216000  0.5397000    0.00000       Uiso       1.00
        C4          C  0.1619000  0.7903000  0.6754000    0.00000       Uiso       1.00
        C5          C  0.1168000  0.7545000  0.8204000    0.00000       Uiso       1.00
        H3          H  0.1222000  0.6847000  0.8495000    0.00000       Uiso       1.00
        C6          C  0.0640000  0.8205000  0.9227999    0.00000       Uiso       1.00
        H4          H  0.0308000  0.7944000  0.0194000    0.00000       Uiso       1.00
        N1          N  0.2236000  0.7221000  0.5806000    0.00000       Uiso       1.00
        O1          O  0.2752000  0.6549000  0.6575000    0.00000       Uiso       1.00
        C7          C  0.9423000  0.0759000  0.8891000    0.00000       Uiso       1.00
        C8          C  0.8940000  0.0427000  0.7423000    0.00000       Uiso       1.00
        H5          H  0.8976000  0.9725000  0.7152000    0.00000       Uiso       1.00
        C9          C  0.8425000  0.1046000  0.6369000    0.00000       Uiso       1.00
        H6          H  0.8101000  0.0784000  0.5397000    0.00000       Uiso       1.00
       C10          C  0.8381000  0.2097000  0.6754000    0.00000       Uiso       1.00
       C11          C  0.8832000  0.2455000  0.8204000    0.00000       Uiso       1.00
        H7          H  0.8778000  0.3153000  0.8495000    0.00000       Uiso       1.00
       C12          C  0.9360000  0.1795000  0.9227999    0.00000       Uiso       1.00
        H8          H  0.9692000  0.2056000  0.0194000    0.00000       Uiso       1.00
        N2          N  0.7764000  0.2779000  0.5806000    0.00000       Uiso       1.00
        O2          O  0.7248000  0.3451000  0.6575000    0.00000       Uiso       1.00
       C13          C  0.9241000  0.9423000  0.1109000    0.00000       Uiso       1.00
       C14          C  0.9573000  0.8940000  0.2577000    0.00000       Uiso       1.00
        H9          H  0.0275000  0.8976000  0.2848000    0.00000       Uiso       1.00
       C15          C  0.8954000  0.8425000  0.3631000    0.00000       Uiso       1.00
       H10          H  0.9216000  0.8101000  0.4603000    0.00000       Uiso       1.00
       C16          C  0.7903000  0.8381000  0.3246000    0.00000       Uiso       1.00
       C17          C  0.7545000  0.8832000  0.1796000    0.00000       Uiso       1.00
       H11          H  0.6847000  0.8778000  0.1505000    0.00000       Uiso       1.00
       C18          C  0.8205000  0.9360000  0.0772000    0.00000       Uiso       1.00
       H12          H  0.7944000  0.9692000  0.9806000    0.00000       Uiso       1.00
        N3          N  0.7221000  0.7764000  0.4194000    0.00000       Uiso       1.00
        O3          O  0.6549000  0.7248000  0.3425000    0.00000       Uiso       1.00
       C19          C  0.0759000  0.0577000  0.1109000    0.00000       Uiso       1.00
       C20          C  0.0427000  0.1060000  0.2577000    0.00000       Uiso       1.00
       H13          H  0.9725000  0.1024000  0.2848000    0.00000       Uiso       1.00
       C21          C  0.1046000  0.1575000  0.3631000    0.00000       Uiso       1.00
       H14          H  0.0784000  0.1899000  0.4603000    0.00000       Uiso       1.00
       C22          C  0.2097000  0.1619000  0.3246000    0.00000       Uiso       1.00
       C23          C  0.2455000  0.1168000  0.1796000    0.00000       Uiso       1.00
       H15          H  0.3153000  0.1222000  0.1505000    0.00000       Uiso       1.00
       C24          C  0.1795000  0.0640000  0.0772000    0.00000       Uiso       1.00
       H16          H  0.2056000  0.0308000  0.9806000    0.00000       Uiso       1.00
        N4          N  0.2779000  0.2236000  0.4194000    0.00000       Uiso       1.00
        O4          O  0.3451000  0.2752000  0.3425000    0.00000       Uiso       1.00
       C25          C  0.5577000  0.5759000  0.8891000    0.00000       Uiso       1.00
       C26          C  0.6060000  0.5427000  0.7423000    0.00000       Uiso       1.00
       H17          H  0.6024000  0.4725000  0.7152000    0.00000       Uiso       1.00
       C27          C  0.6575000  0.6046000  0.6369000    0.00000       Uiso       1.00
       H18          H  0.6899000  0.5784000  0.5397000    0.00000       Uiso       1.00
       C28          C  0.6619000  0.7097000  0.6754000    0.00000       Uiso       1.00
       C29          C  0.6168000  0.7455000  0.8204000    0.00000       Uiso       1.00
       H19          H  0.6222000  0.8153000  0.8495000    0.00000       Uiso       1.00
       C30          C  0.5640000  0.6795000  0.9227999    0.00000       Uiso       1.00
       H20          H  0.5308000  0.7056000  0.0194000    0.00000       Uiso       1.00
        N5          N  0.7236000  0.7779000  0.5806000    0.00000       Uiso       1.00
        O5          O  0.7752000  0.8451000  0.6575000    0.00000       Uiso       1.00
       C31          C  0.4423000  0.4241000  0.8891000    0.00000       Uiso       1.00
       C32          C  0.3940000  0.4573000  0.7423000    0.00000       Uiso       1.00
       H21          H  0.3976000  0.5275000  0.7152000    0.00000       Uiso       1.00
       C33          C  0.3425000  0.3954000  0.6369000    0.00000       Uiso       1.00
       H22          H  0.3101000  0.4216000  0.5397000    0.00000       Uiso       1.00
       C34          C  0.3381000  0.2903000  0.6754000    0.00000       Uiso       1.00
       C35          C  0.3832000  0.2545000  0.8204000    0.00000       Uiso       1.00
       H23          H  0.3778000  0.1847000  0.8495000    0.00000       Uiso       1.00
       C36          C  0.4360000  0.3205000  0.9227999    0.00000       Uiso       1.00
       H24          H  0.4692000  0.2944000  0.0194000    0.00000       Uiso       1.00
        N6          N  0.2764000  0.2221000  0.5806000    0.00000       Uiso       1.00
        O6          O  0.2248000  0.1549000  0.6575000    0.00000       Uiso       1.00
       C37          C  0.4241000  0.5577000  0.1109000    0.00000       Uiso       1.00
       C38          C  0.4573000  0.6060000  0.2577000    0.00000       Uiso       1.00
       H25          H  0.5275000  0.6024000  0.2848000    0.00000       Uiso       1.00
       C39          C  0.3954000  0.6575000  0.3631000    0.00000       Uiso       1.00
       H26          H  0.4216000  0.6899000  0.4603000    0.00000       Uiso       1.00
       C40          C  0.2903000  0.6619000  0.3246000    0.00000       Uiso       1.00
       C41          C  0.2545000  0.6168000  0.1796000    0.00000       Uiso       1.00
       H27          H  0.1847000  0.6222000  0.1505000    0.00000       Uiso       1.00
       C42          C  0.3205000  0.5640000  0.0772000    0.00000       Uiso       1.00
       H28          H  0.2944000  0.5308000  0.9806000    0.00000       Uiso       1.00
        N7          N  0.2221000  0.7236000  0.4194000    0.00000       Uiso       1.00
        O7          O  0.1549000  0.7752000  0.3425000    0.00000       Uiso       1.00
       C43          C  0.5759000  0.4423000  0.1109000    0.00000       Uiso       1.00
       C44          C  0.5427000  0.3940000  0.2577000    0.00000       Uiso       1.00
       H29          H  0.4725000  0.3976000  0.2848000    0.00000       Uiso       1.00
       C45          C  0.6046000  0.3425000  0.3631000    0.00000       Uiso       1.00
       H30          H  0.5784000  0.3101000  0.4603000    0.00000       Uiso       1.00
       C46          C  0.7097000  0.3381000  0.3246000    0.00000       Uiso       1.00
       C47          C  0.7455000  0.3832000  0.1796000    0.00000       Uiso       1.00
       H31          H  0.8153000  0.3778000  0.1505000    0.00000       Uiso       1.00
       C48          C  0.6795000  0.4360000  0.0772000    0.00000       Uiso       1.00
       H32          H  0.7056000  0.4692000  0.9806000    0.00000       Uiso       1.00
        N8          N  0.7779000  0.2764000  0.4194000    0.00000       Uiso       1.00
        O8          O  0.8451000  0.2248000  0.3425000    0.00000       Uiso       1.00
       C49          C  0.0000000  0.0000000  0.0000000    0.00000       Uiso       1.00
       C50          C  0.5000000  0.5000000  0.0000000    0.00000       Uiso       1.00
