data_crystal

_cell_length_a    20.39000
_cell_length_b    20.39000
_cell_length_c    23.09000
_cell_angle_alpha 90.00000
_cell_angle_beta  90.00000
_cell_angle_gamma 90.00000

_space_group_name_Hall 'P 1'
_space_group_name_H-M_alt  'P 1'

loop_
_symmetry_equiv_pos_as_xyz
'x,y,z' 

loop_
_atom_site_label
_atom_site_type_symbol
_atom_site_fract_x
_atom_site_fract_y
_atom_site_fract_z
C          C       0.88117   0.11929   0.61777 
C          C       0.79885   0.13555   0.69825 
C          C       0.76879   0.18978   0.72948 
C          C       0.84056   0.22551   0.66116 
C          C       0.79510   0.24653   0.70608 
C          C       0.72256   0.19081   0.77441 
C          C       0.12220   0.94940   0.61865 
C          C       0.04253   0.95708   0.54014 
C          C       0.08453   0.98701   0.58063 
C          C       0.07642   0.85070   0.57795 
C          C       0.03870   0.88824   0.53991 
O          O       0.78738   0.07777   0.70721 
O          O       0.87298   0.26241   0.63107 
N          N       0.84204   0.15827   0.65719 
H          H       0.70224   0.14284   0.79232 
H          H       0.15601   0.97520   0.65069 
H          H       0.08752   0.04281   0.58211 
H          H       0.07242   0.79497   0.57637 
H          H       0.00417   0.86313   0.50804 
C          C       0.11883   0.88071   0.61777 
C          C       0.20115   0.86445   0.69825 
C          C       0.23121   0.81022   0.72948 
C          C       0.15944   0.77449   0.66116 
C          C       0.20490   0.75347   0.70608 
C          C       0.27744   0.80919   0.77441 
C          C       0.87780   0.05060   0.61865 
C          C       0.95747   0.04292   0.54014 
C          C       0.91547   0.01299   0.58063 
C          C       0.92358   0.14930   0.57795 
C          C       0.96130   0.11176   0.53991 
O          O       0.21262   0.92223   0.70721 
O          O       0.12702   0.73759   0.63107 
N          N       0.15796   0.84173   0.65719 
H          H       0.29776   0.85716   0.79232 
H          H       0.84399   0.02480   0.65069 
H          H       0.91248   0.95719   0.58211 
H          H       0.92758   0.20503   0.57637 
H          H       0.99583   0.13687   0.50804 
C          C       0.38071   0.38117   0.11777 
C          C       0.36445   0.29885   0.19825 
C          C       0.31022   0.26879   0.22948 
C          C       0.27449   0.34056   0.16116 
C          C       0.25347   0.29510   0.20608 
C          C       0.30919   0.22256   0.27441 
C          C       0.55060   0.62220   0.11865 
C          C       0.54292   0.54253   0.04014 
C          C       0.51299   0.58453   0.08063 
C          C       0.64930   0.57642   0.07795 
C          C       0.61176   0.53870   0.03991 
O          O       0.42223   0.28738   0.20721 
O          O       0.23759   0.37298   0.13107 
N          N       0.34173   0.34204   0.15719 
H          H       0.35716   0.20224   0.29232 
H          H       0.52480   0.65601   0.15069 
H          H       0.45719   0.58752   0.08211 
H          H       0.70503   0.57242   0.07637 
H          H       0.63687   0.50417   0.00804 
C          C       0.61929   0.61883   0.11777 
C          C       0.63555   0.70115   0.19825 
C          C       0.68978   0.73121   0.22948 
C          C       0.72551   0.65944   0.16116 
C          C       0.74653   0.70490   0.20608 
C          C       0.69081   0.77744   0.27441 
C          C       0.44940   0.37780   0.11865 
C          C       0.45708   0.45747   0.04014 
C          C       0.48701   0.41547   0.08063 
C          C       0.35070   0.42358   0.07795 
C          C       0.38824   0.46130   0.03991 
O          O       0.57777   0.71262   0.20721 
O          O       0.76241   0.62702   0.13107 
N          N       0.65827   0.65796   0.15719 
H          H       0.64284   0.79776   0.29232 
H          H       0.47520   0.34399   0.15069 
H          H       0.54281   0.41248   0.08211 
H          H       0.29497   0.42758   0.07637 
H          H       0.36313   0.49583   0.00804 
C          C       0.61883   0.38071   0.88223 
C          C       0.70115   0.36445   0.80175 
C          C       0.73121   0.31022   0.77052 
C          C       0.65944   0.27449   0.83884 
C          C       0.70490   0.25347   0.79392 
C          C       0.77744   0.30919   0.72559 
C          C       0.37780   0.55060   0.88135 
C          C       0.45747   0.54292   0.95986 
C          C       0.41547   0.51299   0.91937 
C          C       0.42358   0.64930   0.92205 
C          C       0.46130   0.61176   0.96009 
O          O       0.71262   0.42223   0.79279 
O          O       0.62702   0.23759   0.86893 
N          N       0.65796   0.34173   0.84281 
H          H       0.79776   0.35716   0.70768 
H          H       0.34399   0.52480   0.84931 
H          H       0.41248   0.45719   0.91789 
H          H       0.42758   0.70503   0.92363 
H          H       0.49583   0.63687   0.99196 
C          C       0.38117   0.61929   0.88223 
C          C       0.29885   0.63555   0.80175 
C          C       0.26879   0.68978   0.77052 
C          C       0.34056   0.72551   0.83884 
C          C       0.29510   0.74653   0.79392 
C          C       0.22256   0.69081   0.72559 
C          C       0.62220   0.44940   0.88135 
C          C       0.54253   0.45708   0.95986 
C          C       0.58453   0.48701   0.91937 
C          C       0.57642   0.35070   0.92205 
C          C       0.53870   0.38824   0.96009 
O          O       0.28738   0.57777   0.79279 
O          O       0.37298   0.76241   0.86893 
N          N       0.34204   0.65827   0.84281 
H          H       0.20224   0.64284   0.70768 
H          H       0.65601   0.47520   0.84931 
H          H       0.58752   0.54281   0.91789 
H          H       0.57242   0.29497   0.92363 
H          H       0.50417   0.36313   0.99196 
C          C       0.11929   0.11883   0.38223 
C          C       0.13555   0.20115   0.30175 
C          C       0.18978   0.23121   0.27052 
C          C       0.22551   0.15944   0.33884 
C          C       0.24653   0.20490   0.29392 
C          C       0.19081   0.27744   0.22559 
C          C       0.94940   0.87780   0.38135 
C          C       0.95708   0.95747   0.45986 
C          C       0.98701   0.91547   0.41937 
C          C       0.85070   0.92358   0.42205 
C          C       0.88824   0.96130   0.46009 
O          O       0.07777   0.21262   0.29279 
O          O       0.26241   0.12702   0.36893 
N          N       0.15827   0.15796   0.34281 
H          H       0.14284   0.29776   0.20768 
H          H       0.97520   0.84399   0.34931 
H          H       0.04281   0.91248   0.41789 
H          H       0.79497   0.92758   0.42363 
H          H       0.86313   0.99583   0.49196 
C          C       0.88071   0.88117   0.38223 
C          C       0.86445   0.79885   0.30175 
C          C       0.81022   0.76879   0.27052 
C          C       0.77449   0.84056   0.33884 
C          C       0.75347   0.79510   0.29392 
C          C       0.80919   0.72256   0.22559 
C          C       0.05060   0.12220   0.38135 
C          C       0.04292   0.04253   0.45986 
C          C       0.01299   0.08453   0.41937 
C          C       0.14930   0.07642   0.42205 
C          C       0.11176   0.03870   0.46009 
O          O       0.92223   0.78738   0.29279 
O          O       0.73759   0.87298   0.36893 
N          N       0.84173   0.84204   0.34281 
H          H       0.85716   0.70224   0.20768 
H          H       0.02480   0.15601   0.34931 
H          H       0.95719   0.08752   0.41789 
H          H       0.20503   0.07242   0.42363 
H          H       0.13687   0.00417   0.49196 
C          C       0.00000   0.00000   0.50000 
C          C       0.50000   0.50000   0.00000 
