data_crystal
 
_cell_length_a    29.14440
_cell_length_b    29.14440
_cell_length_c    3.40000
_cell_angle_alpha 90.00000
_cell_angle_beta  90.00000
_cell_angle_gamma 120.00000
 
_symmetry_space_group_name_Hall 'P 1'
_symmetry_space_group_name_H-M  'P 1'
 
loop_
_symmetry_equiv_pos_as_xyz
 'x,y,z' 
 
loop_
_atom_site_label
_atom_site_type_symbol
_atom_site_fract_x
_atom_site_fract_y
_atom_site_fract_z
_atom_site_charge
C          C       0.40813   0.40733   1.47060   0.0000000000
C          C       0.45407   0.45317   1.47059   0.0000000000
C          C       0.59187   0.49919   1.47060   0.0000000000
C          C       0.54593   0.49910   1.47059   0.0000000000
H          H       0.40638   0.36932   1.47054   0.0000000000
H          H       0.59363   0.46295   1.47054   0.0000000000
O          O       0.68603   0.55224   1.47059   0.0000000000
C          C       0.36335   0.40880   1.47059   0.0000000000
O          O       0.31397   0.36621   1.47059   0.0000000000
C          C       0.63665   0.54545   1.47059   0.0000000000
C          C       0.50000   0.45326   1.47060   0.0000000000
H          H       0.49999   0.41594   1.47050   0.0000000000
O          O       0.31397   0.44776   1.47058   0.0000000000
C          C       0.63665   0.59120   1.47058   0.0000000000
O          O       0.68603   0.63379   1.47058   0.0000000000
C          C       0.36335   0.45455   1.47058   0.0000000000
B          B       0.28411   0.39206   1.47059   0.0000000000
C          C       0.50000   0.54674   1.47058   0.0000000000
H          H       0.49999   0.58403   1.47081   0.0000000000
C          C       0.59187   0.59268   1.47058   0.0000000000
C          C       0.54593   0.54684   1.47058   0.0000000000
C          C       0.40813   0.50081   1.47058   0.0000000000
C          C       0.45407   0.50090   1.47058   0.0000000000
B          B       0.71589   0.60795   1.47059   0.0000000000
H          H       0.59362   0.63069   1.47074   0.0000000000
H          H       0.40638   0.53705   1.47068   0.0000000000
C          C       0.99919   0.09187   1.47053   0.0000000000
C          C       0.99910   0.04593   1.47053   0.0000000000
C          C       0.90733   0.90813   1.47055   0.0000000000
C          C       0.95317   0.95407   1.47055   0.0000000000
H          H       0.96295   0.09362   1.47047   0.0000000000
H          H       0.86932   0.90637   1.47049   0.0000000000
O          O       0.86621   0.81397   1.47056   0.0000000000
C          C       0.04545   0.13665   1.47052   0.0000000000
O          O       0.05224   0.18603   1.47051   0.0000000000
C          C       0.90880   0.86335   1.47056   0.0000000000
C          C       0.95326   0.00000   1.47054   0.0000000000
H          H       0.91595   0.00001   1.47043   0.0000000000
O          O       0.13379   0.18603   1.47052   0.0000000000
C          C       0.95455   0.86335   1.47056   0.0000000000
O          O       0.94776   0.81397   1.47057   0.0000000000
C          C       0.09120   0.13665   1.47053   0.0000000000
B          B       0.10794   0.21589   1.47051   0.0000000000
C          C       0.04674   0.00000   1.47055   0.0000000000
H          H       0.08405   0.00001   1.47079   0.0000000000
C          C       0.00081   0.90813   1.47056   0.0000000000
C          C       0.00090   0.95407   1.47055   0.0000000000
C          C       0.09268   0.09187   1.47053   0.0000000000
C          C       0.04684   0.04593   1.47054   0.0000000000
B          B       0.89206   0.78411   1.47057   0.0000000000
H          H       0.03707   0.90638   1.47073   0.0000000000
H          H       0.13067   0.09362   1.47064   0.0000000000
C          C       0.09267   0.50081   1.47064   0.0000000000
C          C       0.04683   0.50090   1.47063   0.0000000000
C          C       0.00081   0.59268   1.47061   0.0000000000
C          C       0.00090   0.54684   1.47062   0.0000000000
H          H       0.13068   0.53706   1.47058   0.0000000000
H          H       0.03705   0.63068   1.47055   0.0000000000
O          O       0.94776   0.63379   1.47060   0.0000000000
C          C       0.09120   0.45455   1.47065   0.0000000000
O          O       0.13379   0.44776   1.47065   0.0000000000
C          C       0.95455   0.59120   1.47061   0.0000000000
C          C       0.04674   0.54674   1.47063   0.0000000000
H          H       0.08406   0.58405   1.47052   0.0000000000
O          O       0.05224   0.36621   1.47066   0.0000000000
C          C       0.90880   0.54545   1.47061   0.0000000000
O          O       0.86621   0.55224   1.47061   0.0000000000
C          C       0.04545   0.40880   1.47065   0.0000000000
B          B       0.10794   0.39206   1.47066   0.0000000000
C          C       0.95326   0.45326   1.47063   0.0000000000
H          H       0.91597   0.41596   1.47088   0.0000000000
C          C       0.90733   0.49919   1.47062   0.0000000000
C          C       0.95317   0.49910   1.47063   0.0000000000
C          C       0.99919   0.40733   1.47065   0.0000000000
C          C       0.99910   0.45317   1.47064   0.0000000000
B          B       0.89206   0.60795   1.47060   0.0000000000
H          H       0.86931   0.46293   1.47080   0.0000000000
H          H       0.96295   0.36933   1.47075   0.0000000000
C          C       0.77774   0.63887   1.47059   0.0000000000
C          C       0.86113   0.63887   1.47059   0.0000000000
C          C       0.86113   0.72227   1.47058   0.0000000000
C          C       0.80560   0.61121   1.47059   0.0000000000
C          C       0.88879   0.69440   1.47059   0.0000000000
C          C       0.80560   0.69440   1.47058   0.0000000000
H          H       0.78412   0.71588   1.47057   0.0000000000
H          H       0.78412   0.56824   1.47060   0.0000000000
H          H       0.93176   0.71588   1.47059   0.0000000000
C          C       0.22227   0.36113   1.47059   0.0000000000
C          C       0.13887   0.27774   1.47059   0.0000000000
C          C       0.13887   0.36113   1.47058   0.0000000000
C          C       0.19440   0.30560   1.47059   0.0000000000
C          C       0.11121   0.30560   1.47059   0.0000000000
C          C       0.19440   0.38879   1.47058   0.0000000000
H          H       0.21588   0.43176   1.47057   0.0000000000
H          H       0.21588   0.28412   1.47060   0.0000000000
H          H       0.06824   0.28412   1.47059   0.0000000000
