data_crystal

_cell_length_a    29.14440
_cell_length_b    29.14440
_cell_length_c    6.80000
_cell_angle_alpha 90.00000
_cell_angle_beta  90.00000
_cell_angle_gamma 120.00000

_space_group_name_Hall 'P 1'
_space_group_name_H-M_alt  'P 1'

loop_
_symmetry_equiv_pos_as_xyz
'x,y,z' 

loop_
_atom_site_label
_atom_site_type_symbol
_atom_site_fract_x
_atom_site_fract_y
_atom_site_fract_z
C          C       0.40813   0.40733   0.73530 
C          C       0.45407   0.45317   0.73530 
C          C       0.59187   0.49919   0.73530 
C          C       0.54593   0.49910   0.73530 
H          H       0.40638   0.36932   0.73527 
H          H       0.59363   0.46295   0.73527 
O          O       0.68603   0.55224   0.73530 
C          C       0.36335   0.40880   0.73530 
O          O       0.31397   0.36621   0.73530 
C          C       0.63665   0.54545   0.73530 
C          C       0.50000   0.45326   0.73530 
H          H       0.49999   0.41594   0.73525 
O          O       0.31397   0.44776   0.73529 
C          C       0.63665   0.59120   0.73529 
O          O       0.68603   0.63379   0.73529 
C          C       0.36335   0.45455   0.73529 
B          B       0.28411   0.39206   0.73530 
C          C       0.50000   0.54674   0.73529 
H          H       0.49999   0.58403   0.73540 
C          C       0.59187   0.59268   0.73529 
C          C       0.54593   0.54684   0.73529 
C          C       0.40813   0.50081   0.73529 
C          C       0.45407   0.50090   0.73529 
B          B       0.71589   0.60795   0.73530 
H          H       0.59362   0.63069   0.73537 
H          H       0.40638   0.53705   0.73534 
C          C       0.99919   0.09187   0.73527 
C          C       0.99910   0.04593   0.73527 
C          C       0.90733   0.90813   0.73528 
C          C       0.95317   0.95407   0.73528 
H          H       0.96295   0.09362   0.73523 
H          H       0.86932   0.90637   0.73525 
O          O       0.86621   0.81397   0.73528 
C          C       0.04545   0.13665   0.73526 
O          O       0.05224   0.18603   0.73525 
C          C       0.90880   0.86335   0.73528 
C          C       0.95326  -0.00000   0.73527 
H          H       0.91595   0.00001   0.73521 
O          O       0.13379   0.18603   0.73526 
C          C       0.95455   0.86335   0.73528 
O          O       0.94776   0.81397   0.73528 
C          C       0.09120   0.13665   0.73527 
B          B       0.10794   0.21589   0.73525 
C          C       0.04674   0.00000   0.73528 
H          H       0.08405   0.00001   0.73540 
C          C       0.00081   0.90813   0.73528 
C          C       0.00090   0.95407   0.73528 
C          C       0.09268   0.09187   0.73527 
C          C       0.04684   0.04593   0.73527 
B          B       0.89206   0.78411   0.73528 
H          H       0.03707   0.90638   0.73537 
H          H       0.13067   0.09362   0.73532 
C          C       0.09267   0.50081   0.73532 
C          C       0.04683   0.50090   0.73532 
C          C       0.00081   0.59268   0.73530 
C          C       0.00090   0.54684   0.73531 
H          H       0.13068   0.53706   0.73529 
H          H       0.03705   0.63068   0.73528 
O          O       0.94776   0.63379   0.73530 
C          C       0.09120   0.45455   0.73533 
O          O       0.13379   0.44776   0.73533 
C          C       0.95455   0.59120   0.73530 
C          C       0.04674   0.54674   0.73532 
H          H       0.08406   0.58405   0.73526 
O          O       0.05224   0.36621   0.73533 
C          C       0.90880   0.54545   0.73530 
O          O       0.86621   0.55224   0.73530 
C          C       0.04545   0.40880   0.73533 
B          B       0.10794   0.39206   0.73533 
C          C       0.95326   0.45326   0.73532 
H          H       0.91597   0.41596   0.73544 
C          C       0.90733   0.49919   0.73531 
C          C       0.95317   0.49910   0.73532 
C          C       0.99919   0.40733   0.73533 
C          C       0.99910   0.45317   0.73532 
B          B       0.89206   0.60795   0.73530 
H          H       0.86931   0.46293   0.73540 
H          H       0.96295   0.36933   0.73538 
C          C       0.77774   0.63887   0.73530 
C          C       0.86113   0.63887   0.73530 
C          C       0.86113   0.72227   0.73529 
C          C       0.80560   0.61121   0.73530 
C          C       0.88879   0.69440   0.73530 
C          C       0.80560   0.69440   0.73529 
H          H       0.78412   0.71588   0.73528 
H          H       0.78412   0.56824   0.73530 
H          H       0.93176   0.71588   0.73530 
C          C       0.22227   0.36113   0.73530 
C          C       0.13887   0.27774   0.73530 
C          C       0.13887   0.36113   0.73529 
C          C       0.19440   0.30560   0.73530 
C          C       0.11121   0.30560   0.73530 
C          C       0.19440   0.38879   0.73529 
H          H       0.21588   0.43176   0.73528 
H          H       0.21588   0.28412   0.73530 
H          H       0.06824   0.28412   0.73530 
C          C       0.40813   0.40733   1.23530 
C          C       0.45407   0.45317   1.23530 
C          C       0.59187   0.49919   1.23530 
C          C       0.54593   0.49910   1.23530 
H          H       0.40638   0.36932   1.23527 
H          H       0.59363   0.46295   1.23527 
O          O       0.68603   0.55224   1.23530 
C          C       0.36335   0.40880   1.23530 
O          O       0.31397   0.36621   1.23530 
C          C       0.63665   0.54545   1.23530 
C          C       0.50000   0.45326   1.23530 
H          H       0.49999   0.41594   1.23525 
O          O       0.31397   0.44776   1.23529 
C          C       0.63665   0.59120   1.23529 
O          O       0.68603   0.63379   1.23529 
C          C       0.36335   0.45455   1.23529 
B          B       0.28411   0.39206   1.23530 
C          C       0.50000   0.54674   1.23529 
H          H       0.49999   0.58403   1.23540 
C          C       0.59187   0.59268   1.23529 
C          C       0.54593   0.54684   1.23529 
C          C       0.40813   0.50081   1.23529 
C          C       0.45407   0.50090   1.23529 
B          B       0.71589   0.60795   1.23530 
H          H       0.59362   0.63069   1.23537 
H          H       0.40638   0.53705   1.23534 
C          C       0.99919   0.09187   1.23526 
C          C       0.99910   0.04593   1.23526 
C          C       0.90733   0.90813   1.23528 
C          C       0.95317   0.95407   1.23528 
H          H       0.96295   0.09362   1.23523 
H          H       0.86932   0.90637   1.23524 
O          O       0.86621   0.81397   1.23528 
C          C       0.04545   0.13665   1.23526 
O          O       0.05224   0.18603   1.23526 
C          C       0.90880   0.86335   1.23528 
C          C       0.95326  -0.00000   1.23527 
H          H       0.91595   0.00001   1.23521 
O          O       0.13379   0.18603   1.23526 
C          C       0.95455   0.86335   1.23528 
O          O       0.94776   0.81397   1.23528 
C          C       0.09120   0.13665   1.23526 
B          B       0.10794   0.21589   1.23526 
C          C       0.04674   0.00000   1.23528 
H          H       0.08405   0.00001   1.23540 
C          C       0.00081   0.90813   1.23528 
C          C       0.00090   0.95407   1.23528 
C          C       0.09268   0.09187   1.23526 
C          C       0.04684   0.04593   1.23527 
B          B       0.89206   0.78411   1.23528 
H          H       0.03707   0.90638   1.23537 
H          H       0.13067   0.09362   1.23532 
C          C       0.09267   0.50081   1.23532 
C          C       0.04683   0.50090   1.23532 
C          C       0.00081   0.59268   1.23531 
C          C       0.00090   0.54684   1.23531 
H          H       0.13068   0.53706   1.23529 
H          H       0.03705   0.63068   1.23528 
O          O       0.94776   0.63379   1.23530 
C          C       0.09120   0.45455   1.23533 
O          O       0.13379   0.44776   1.23533 
C          C       0.95455   0.59120   1.23531 
C          C       0.04674   0.54674   1.23532 
H          H       0.08406   0.58405   1.23526 
O          O       0.05224   0.36621   1.23533 
C          C       0.90880   0.54545   1.23531 
O          O       0.86621   0.55224   1.23531 
C          C       0.04545   0.40880   1.23533 
B          B       0.10794   0.39206   1.23533 
C          C       0.95326   0.45326   1.23532 
H          H       0.91597   0.41596   1.23544 
C          C       0.90733   0.49919   1.23531 
C          C       0.95317   0.49910   1.23532 
C          C       0.99919   0.40733   1.23533 
C          C       0.99910   0.45317   1.23532 
B          B       0.89206   0.60795   1.23530 
H          H       0.86931   0.46293   1.23540 
H          H       0.96295   0.36933   1.23537 
C          C       0.77774   0.63887   1.23530 
C          C       0.86113   0.63887   1.23530 
C          C       0.86113   0.72227   1.23529 
C          C       0.80560   0.61121   1.23530 
C          C       0.88879   0.69440   1.23530 
C          C       0.80560   0.69440   1.23529 
H          H       0.78412   0.71588   1.23528 
H          H       0.78412   0.56824   1.23530 
H          H       0.93176   0.71588   1.23530 
C          C       0.22227   0.36113   1.23530 
C          C       0.13887   0.27774   1.23530 
C          C       0.13887   0.36113   1.23529 
C          C       0.19440   0.30560   1.23530 
C          C       0.11121   0.30560   1.23530 
C          C       0.19440   0.38879   1.23529 
H          H       0.21588   0.43176   1.23528 
H          H       0.21588   0.28412   1.23530 
H          H       0.06824   0.28412   1.23530 
