data_crystal
 
_cell_length_a    28.14750
_cell_length_b    28.14750
_cell_length_c    29.03420
_cell_angle_alpha 90.00000
_cell_angle_beta  90.00000
_cell_angle_gamma 120.00000
 
_symmetry_space_group_name_Hall 'P 1'
_symmetry_space_group_name_H-M  'P 1'
 
loop_
_symmetry_equiv_pos_as_xyz
 'x,y,z' 
 
loop_
_atom_site_label
_atom_site_type_symbol
_atom_site_fract_x
_atom_site_fract_y
_atom_site_fract_z
C          C       0.90730   0.40287   0.18100 
C          C       0.59713   0.50443   0.18100 
C          C       0.49557   0.09270   0.18100 
C          C       0.09270   0.59713   0.18100 
C          C       0.40287   0.49557   0.18100 
C          C       0.50443   0.90730   0.18100 
C          C       0.40287   0.90730   0.31900 
C          C       0.50443   0.59713   0.31900 
C          C       0.09270   0.49557   0.31900 
C          C       0.59713   0.09270   0.31900 
C          C       0.49557   0.40287   0.31900 
C          C       0.90730   0.50443   0.31900 
C          C       0.09270   0.59713   0.31900 
C          C       0.40287   0.49557   0.31900 
C          C       0.50443   0.90730   0.31900 
C          C       0.90730   0.40287   0.31900 
C          C       0.59713   0.50443   0.31900 
C          C       0.49557   0.09270   0.31900 
C          C       0.59713   0.09270   0.18100 
C          C       0.49557   0.40287   0.18100 
C          C       0.90730   0.50443   0.18100 
C          C       0.40287   0.90730   0.18100 
C          C       0.50443   0.59713   0.18100 
C          C       0.09270   0.49557   0.18100 
C          C       0.95137   0.45016   0.20107 
C          C       0.54984   0.50121   0.20107 
C          C       0.49879   0.04863   0.20107 
C          C       0.04863   0.54984   0.20107 
C          C       0.45016   0.49879   0.20107 
C          C       0.50121   0.95137   0.20107 
C          C       0.45016   0.95137   0.29892 
C          C       0.50121   0.54984   0.29892 
C          C       0.04863   0.49879   0.29892 
C          C       0.54984   0.04863   0.29892 
C          C       0.49879   0.45016   0.29892 
C          C       0.95137   0.50121   0.29892 
C          C       0.04863   0.54984   0.29892 
C          C       0.45016   0.49879   0.29892 
C          C       0.50121   0.95137   0.29892 
C          C       0.95137   0.45016   0.29892 
C          C       0.54984   0.50121   0.29892 
C          C       0.49879   0.04863   0.29892 
C          C       0.54984   0.04863   0.20107 
C          C       0.49879   0.45016   0.20107 
C          C       0.95137   0.50121   0.20107 
C          C       0.45016   0.95137   0.20107 
C          C       0.50121   0.54984   0.20107 
C          C       0.04863   0.49879   0.20107 
H          H       0.90622   0.36613   0.18057 
H          H       0.63387   0.54009   0.18057 
H          H       0.45991   0.09378   0.18057 
H          H       0.09378   0.63387   0.18057 
H          H       0.36613   0.45991   0.18057 
H          H       0.54009   0.90622   0.18057 
H          H       0.36613   0.90622   0.31943 
H          H       0.54009   0.63387   0.31943 
H          H       0.09378   0.45991   0.31943 
H          H       0.63387   0.09378   0.31943 
H          H       0.45991   0.36613   0.31943 
H          H       0.90622   0.54009   0.31943 
H          H       0.09378   0.63387   0.31943 
H          H       0.36613   0.45991   0.31943 
H          H       0.54009   0.90622   0.31943 
H          H       0.90622   0.36613   0.31943 
H          H       0.63387   0.54009   0.31943 
H          H       0.45991   0.09378   0.31943 
H          H       0.63387   0.09378   0.18057 
H          H       0.45991   0.36613   0.18057 
H          H       0.90622   0.54009   0.18057 
H          H       0.36613   0.90622   0.18057 
H          H       0.54009   0.63387   0.18057 
H          H       0.09378   0.45991   0.18057 
C          C       0.86351   0.40694   0.16253 
C          C       0.59306   0.45657   0.16253 
C          C       0.54343   0.13649   0.16253 
C          C       0.13649   0.59306   0.16253 
C          C       0.40694   0.54343   0.16253 
C          C       0.45657   0.86351   0.16253 
C          C       0.40694   0.86351   0.33747 
C          C       0.45657   0.59306   0.33747 
C          C       0.13649   0.54343   0.33747 
C          C       0.59306   0.13649   0.33747 
C          C       0.54343   0.40694   0.33747 
C          C       0.86351   0.45657   0.33747 
C          C       0.13649   0.59306   0.33747 
C          C       0.40694   0.54343   0.33747 
C          C       0.45657   0.86351   0.33747 
C          C       0.86351   0.40694   0.33747 
C          C       0.59306   0.45657   0.33747 
C          C       0.54343   0.13649   0.33747 
C          C       0.59306   0.13649   0.16253 
C          C       0.54343   0.40694   0.16253 
C          C       0.86351   0.45657   0.16253 
C          C       0.40694   0.86351   0.16253 
C          C       0.45657   0.59306   0.16253 
C          C       0.13649   0.54343   0.16253 
C          C      -0.00000   0.44979   0.22243 
C          C       0.55021   0.55021   0.22243 
C          C       0.44979   0.00000   0.22243 
C          C       0.00000   0.55021   0.22243 
C          C       0.44979   0.44979   0.22243 
C          C       0.55021   0.00000   0.22243 
C          C       0.44979  -0.00000   0.27757 
C          C       0.55021   0.55021   0.27757 
C          C      -0.00000   0.44979   0.27757 
C          C       0.55021  -0.00000   0.27757 
C          C       0.44979   0.44979   0.27757 
C          C       0.00000   0.55021   0.27757 
C          C       0.27513   0.63757   0.12401 
C          C       0.36244   0.63757   0.12401 
C          C       0.36244   0.72487   0.12401 
C          C       0.72487   0.36244   0.12401 
C          C       0.63757   0.36244   0.12401 
C          C       0.63757   0.27513   0.12401 
C          C       0.63757   0.27513   0.37599 
C          C       0.63757   0.36244   0.37599 
C          C       0.72487   0.36244   0.37599 
C          C       0.36244   0.72487   0.37599 
C          C       0.36244   0.63757   0.37599 
C          C       0.27513   0.63757   0.37599 
C          C       0.30449   0.60897   0.12266 
C          C       0.39103   0.69551   0.12266 
C          C       0.30449   0.69551   0.12266 
C          C       0.69551   0.39103   0.12266 
C          C       0.60897   0.30449   0.12266 
C          C       0.69551   0.30449   0.12266 
C          C       0.60897   0.30449   0.37733 
C          C       0.69551   0.39103   0.37733 
C          C       0.69551   0.30449   0.37733 
C          C       0.39103   0.69551   0.37733 
C          C       0.30449   0.60897   0.37733 
C          C       0.30449   0.69551   0.37733 
H          H       0.28349   0.71651   0.12401 
H          H       0.28349   0.56698   0.12401 
H          H       0.43303   0.71651   0.12401 
H          H       0.71651   0.28349   0.12401 
H          H       0.71651   0.43303   0.12401 
H          H       0.56698   0.28349   0.12401 
H          H       0.71651   0.28349   0.37599 
H          H       0.56698   0.28349   0.37599 
H          H       0.71651   0.43303   0.37599 
H          H       0.28349   0.71651   0.37599 
H          H       0.43303   0.71651   0.37599 
H          H       0.28349   0.56698   0.37599 
H          H      -0.00000   0.41259   0.21132 
H          H       0.58741   0.58741   0.21132 
H          H       0.41259  -0.00000   0.21132 
H          H      -0.00000   0.58741   0.21132 
H          H       0.41259   0.41259   0.21132 
H          H       0.58741  -0.00000   0.21132 
H          H       0.41259   0.00000   0.28869 
H          H       0.58741   0.58741   0.28869 
H          H       0.00000   0.41259   0.28869 
H          H       0.58741   0.00000   0.28869 
H          H       0.41259   0.41259   0.28869 
H          H       0.00000   0.58741   0.28869 
O          O       0.18332   0.54960   0.14456 
O          O       0.45040   0.63372   0.14456 
O          O       0.36628   0.81669   0.14456 
O          O       0.81669   0.45040   0.14456 
O          O       0.54960   0.36628   0.14456 
O          O       0.63372   0.18332   0.14456 
O          O       0.54960   0.18332   0.35544 
O          O       0.63372   0.45040   0.35544 
O          O       0.81669   0.36628   0.35544 
O          O       0.45040   0.81669   0.35544 
O          O       0.36628   0.54960   0.35544 
O          O       0.18332   0.63372   0.35544 
O          O       0.81669   0.45040   0.35544 
O          O       0.54960   0.36628   0.35544 
O          O       0.63372   0.18332   0.35544 
O          O       0.18332   0.54960   0.35544 
O          O       0.45040   0.63372   0.35544 
O          O       0.36628   0.81669   0.35544 
O          O       0.45040   0.81669   0.14456 
O          O       0.36628   0.54960   0.14456 
O          O       0.18332   0.63372   0.14456 
O          O       0.54960   0.18332   0.14456 
O          O       0.63372   0.45040   0.14456 
O          O       0.81669   0.36628   0.14456 
B          B       0.78452   0.39226   0.13515 
B          B       0.60774   0.39226   0.13515 
B          B       0.60774   0.21548   0.13515 
B          B       0.21548   0.60774   0.13515 
B          B       0.39226   0.60774   0.13515 
B          B       0.39226   0.78452   0.13515 
B          B       0.39226   0.78452   0.36484 
B          B       0.39226   0.60774   0.36484 
B          B       0.21548   0.60774   0.36484 
B          B       0.60774   0.21548   0.36484 
B          B       0.60774   0.39226   0.36484 
B          B       0.78452   0.39226   0.36484 
C          C       0.90730   0.40287   0.68100 
C          C       0.59713   0.50443   0.68100 
C          C       0.49557   0.09270   0.68100 
C          C       0.09270   0.59713   0.68100 
C          C       0.40287   0.49557   0.68100 
C          C       0.50443   0.90730   0.68100 
C          C       0.40287   0.90730   0.81900 
C          C       0.50443   0.59713   0.81900 
C          C       0.09270   0.49557   0.81900 
C          C       0.59713   0.09270   0.81900 
C          C       0.49557   0.40287   0.81900 
C          C       0.90730   0.50443   0.81900 
C          C       0.09270   0.59713   0.81900 
C          C       0.40287   0.49557   0.81900 
C          C       0.50443   0.90730   0.81900 
C          C       0.90730   0.40287   0.81900 
C          C       0.59713   0.50443   0.81900 
C          C       0.49557   0.09270   0.81900 
C          C       0.59713   0.09270   0.68100 
C          C       0.49557   0.40287   0.68100 
C          C       0.90730   0.50443   0.68100 
C          C       0.40287   0.90730   0.68100 
C          C       0.50443   0.59713   0.68100 
C          C       0.09270   0.49557   0.68100 
C          C       0.95137   0.45016   0.70108 
C          C       0.54984   0.50121   0.70108 
C          C       0.49879   0.04863   0.70108 
C          C       0.04863   0.54984   0.70108 
C          C       0.45016   0.49879   0.70108 
C          C       0.50121   0.95137   0.70108 
C          C       0.45016   0.95137   0.79892 
C          C       0.50121   0.54984   0.79892 
C          C       0.04863   0.49879   0.79892 
C          C       0.54984   0.04863   0.79892 
C          C       0.49879   0.45016   0.79892 
C          C       0.95137   0.50121   0.79892 
C          C       0.04863   0.54984   0.79892 
C          C       0.45016   0.49879   0.79892 
C          C       0.50121   0.95137   0.79892 
C          C       0.95137   0.45016   0.79892 
C          C       0.54984   0.50121   0.79892 
C          C       0.49879   0.04863   0.79892 
C          C       0.54984   0.04863   0.70108 
C          C       0.49879   0.45016   0.70108 
C          C       0.95137   0.50121   0.70108 
C          C       0.45016   0.95137   0.70108 
C          C       0.50121   0.54984   0.70108 
C          C       0.04863   0.49879   0.70108 
H          H       0.90622   0.36613   0.68057 
H          H       0.63387   0.54009   0.68057 
H          H       0.45991   0.09378   0.68057 
H          H       0.09378   0.63387   0.68057 
H          H       0.36613   0.45991   0.68057 
H          H       0.54009   0.90622   0.68057 
H          H       0.36613   0.90622   0.81943 
H          H       0.54009   0.63387   0.81943 
H          H       0.09378   0.45991   0.81943 
H          H       0.63387   0.09378   0.81943 
H          H       0.45991   0.36613   0.81943 
H          H       0.90622   0.54009   0.81943 
H          H       0.09378   0.63387   0.81943 
H          H       0.36613   0.45991   0.81943 
H          H       0.54009   0.90622   0.81943 
H          H       0.90622   0.36613   0.81943 
H          H       0.63387   0.54009   0.81943 
H          H       0.45991   0.09378   0.81943 
H          H       0.63387   0.09378   0.68057 
H          H       0.45991   0.36613   0.68057 
H          H       0.90622   0.54009   0.68057 
H          H       0.36613   0.90622   0.68057 
H          H       0.54009   0.63387   0.68057 
H          H       0.09378   0.45991   0.68057 
C          C       0.86351   0.40694   0.66252 
C          C       0.59306   0.45657   0.66252 
C          C       0.54343   0.13649   0.66252 
C          C       0.13649   0.59306   0.66252 
C          C       0.40694   0.54343   0.66252 
C          C       0.45657   0.86351   0.66252 
C          C       0.40694   0.86351   0.83747 
C          C       0.45657   0.59306   0.83747 
C          C       0.13649   0.54343   0.83747 
C          C       0.59306   0.13649   0.83747 
C          C       0.54343   0.40694   0.83747 
C          C       0.86351   0.45657   0.83747 
C          C       0.13649   0.59306   0.83747 
C          C       0.40694   0.54343   0.83747 
C          C       0.45657   0.86351   0.83747 
C          C       0.86351   0.40694   0.83747 
C          C       0.59306   0.45657   0.83747 
C          C       0.54343   0.13649   0.83747 
C          C       0.59306   0.13649   0.66252 
C          C       0.54343   0.40694   0.66252 
C          C       0.86351   0.45657   0.66252 
C          C       0.40694   0.86351   0.66252 
C          C       0.45657   0.59306   0.66252 
C          C       0.13649   0.54343   0.66252 
C          C      -0.00000   0.44979   0.72243 
C          C       0.55021   0.55021   0.72243 
C          C       0.44979   0.00000   0.72243 
C          C      -0.00000   0.55021   0.72243 
C          C       0.44979   0.44979   0.72243 
C          C       0.55021   0.00000   0.72243 
C          C       0.44979  -0.00000   0.77757 
C          C       0.55021   0.55021   0.77757 
C          C      -0.00000   0.44979   0.77757 
C          C       0.55021  -0.00000   0.77757 
C          C       0.44979   0.44979   0.77757 
C          C       0.00000   0.55021   0.77757 
C          C       0.27513   0.63757   0.62401 
C          C       0.36244   0.63757   0.62401 
C          C       0.36244   0.72487   0.62401 
C          C       0.72487   0.36244   0.62401 
C          C       0.63757   0.36244   0.62401 
C          C       0.63757   0.27513   0.62401 
C          C       0.63757   0.27513   0.87599 
C          C       0.63757   0.36244   0.87599 
C          C       0.72487   0.36244   0.87599 
C          C       0.36244   0.72487   0.87599 
C          C       0.36244   0.63757   0.87599 
C          C       0.27513   0.63757   0.87599 
C          C       0.30449   0.60897   0.62267 
C          C       0.39103   0.69551   0.62267 
C          C       0.30449   0.69551   0.62267 
C          C       0.69551   0.39103   0.62267 
C          C       0.60897   0.30449   0.62267 
C          C       0.69551   0.30449   0.62267 
C          C       0.60897   0.30449   0.87733 
C          C       0.69551   0.39103   0.87733 
C          C       0.69551   0.30449   0.87733 
C          C       0.39103   0.69551   0.87733 
C          C       0.30449   0.60897   0.87733 
C          C       0.30449   0.69551   0.87733 
H          H       0.28349   0.71651   0.62401 
H          H       0.28349   0.56698   0.62401 
H          H       0.43303   0.71651   0.62401 
H          H       0.71651   0.28349   0.62401 
H          H       0.71651   0.43303   0.62401 
H          H       0.56698   0.28349   0.62401 
H          H       0.71651   0.28349   0.87598 
H          H       0.56698   0.28349   0.87598 
H          H       0.71651   0.43303   0.87598 
H          H       0.28349   0.71651   0.87598 
H          H       0.43303   0.71651   0.87598 
H          H       0.28349   0.56698   0.87598 
H          H      -0.00000   0.41259   0.71132 
H          H       0.58741   0.58741   0.71132 
H          H       0.41259  -0.00000   0.71132 
H          H       0.00000   0.58741   0.71132 
H          H       0.41259   0.41259   0.71132 
H          H       0.58741  -0.00000   0.71132 
H          H       0.41259  -0.00000   0.78868 
H          H       0.58741   0.58741   0.78868 
H          H       0.00000   0.41259   0.78868 
H          H       0.58741  -0.00000   0.78868 
H          H       0.41259   0.41259   0.78868 
H          H       0.00000   0.58741   0.78868 
O          O       0.18332   0.54960   0.64456 
O          O       0.45040   0.63372   0.64456 
O          O       0.36628   0.81669   0.64456 
O          O       0.81669   0.45040   0.64456 
O          O       0.54960   0.36628   0.64456 
O          O       0.63372   0.18332   0.64456 
O          O       0.54960   0.18332   0.85544 
O          O       0.63372   0.45040   0.85544 
O          O       0.81669   0.36628   0.85544 
O          O       0.45040   0.81669   0.85544 
O          O       0.36628   0.54960   0.85544 
O          O       0.18332   0.63372   0.85544 
O          O       0.81669   0.45040   0.85544 
O          O       0.54960   0.36628   0.85544 
O          O       0.63372   0.18332   0.85544 
O          O       0.18332   0.54960   0.85544 
O          O       0.45040   0.63372   0.85544 
O          O       0.36628   0.81669   0.85544 
O          O       0.45040   0.81669   0.64456 
O          O       0.36628   0.54960   0.64456 
O          O       0.18332   0.63372   0.64456 
O          O       0.54960   0.18332   0.64456 
O          O       0.63372   0.45040   0.64456 
O          O       0.81669   0.36628   0.64456 
B          B       0.78452   0.39226   0.63515 
B          B       0.60774   0.39226   0.63515 
B          B       0.60774   0.21548   0.63515 
B          B       0.21548   0.60774   0.63515 
B          B       0.39226   0.60774   0.63515 
B          B       0.39226   0.78452   0.63515 
B          B       0.39226   0.78452   0.86484 
B          B       0.39226   0.60774   0.86484 
B          B       0.21548   0.60774   0.86484 
B          B       0.60774   0.21548   0.86484 
B          B       0.60774   0.39226   0.86484 
B          B       0.78452   0.39226   0.86484 
