data_crystal

_cell_length_a    18.15900
_cell_length_b    18.15900
_cell_length_c    6.99400
_cell_angle_alpha 90.00000
_cell_angle_beta  90.00000
_cell_angle_gamma 120.00000

_space_group_name_Hall 'P 1'
_space_group_name_H-M_alt  'P 1'

loop_
_symmetry_equiv_pos_as_xyz
'x,y,z' 

loop_
_atom_site_label
_atom_site_type_symbol
_atom_site_fract_x
_atom_site_fract_y
_atom_site_fract_z
C          C       0.15464   0.56364   0.25000 
C          C       0.43636   0.59100   0.25000 
C          C       0.40900   0.84536   0.25000 
N          N       0.10738   0.59749   0.25000 
N          N       0.40251   0.50989   0.25000 
N          N       0.49011   0.89262   0.25000 
C          C       0.84309   0.43862   0.25000 
C          C       0.56138   0.40447   0.25000 
C          C       0.59553   0.15691   0.25000 
C          C       0.89765   0.40528   0.25000 
C          C       0.59472   0.49237   0.25000 
C          C       0.50763   0.10235   0.25000 
H          H       0.87439   0.34534   0.25000 
H          H       0.65466   0.52905   0.25000 
H          H       0.47095   0.12561   0.25000 
C          C       0.98333   0.45691   0.25000 
C          C       0.54309   0.52642   0.25000 
C          C       0.47358   0.01667   0.25000 
H          H       0.01947   0.43286   0.25000 
H          H       0.56714   0.58661   0.25000 
H          H       0.41339   0.98053   0.25000 
C          C       0.01824   0.54298   0.25000 
C          C       0.45702   0.47526   0.25000 
C          C       0.52474   0.98176   0.25000 
C          C       0.96426   0.57862   0.25000 
C          C       0.42138   0.38564   0.25000 
C          C       0.61436   0.03574   0.25000 
H          H       0.98782   0.63874   0.25000 
H          H       0.36126   0.34908   0.25000 
H          H       0.65092   0.01218   0.25000 
C          C       0.87742   0.52527   0.25000 
C          C       0.47473   0.35215   0.25000 
C          C       0.64785   0.12258   0.25000 
H          H       0.84080   0.54868   0.25000 
H          H       0.45132   0.29212   0.25000 
H          H       0.70788   0.15920   0.25000 
C          C       0.36742   0.75401   0.25000 
C          C       0.24599   0.61341   0.25000 
C          C       0.38659   0.63258   0.25000 
C          C       0.28036   0.70135   0.25000 
C          C       0.29865   0.57901   0.25000 
C          C       0.42099   0.71964   0.25000 
H          H       0.23669   0.72988   0.25000 
H          H       0.27012   0.50681   0.25000 
H          H       0.49319   0.76331   0.25000 
C          C       0.61655   0.36657   0.25000 
C          C       0.63343   0.24998   0.25000 
C          C       0.75002   0.38345   0.25000 
N          N       0.70015   0.41959   0.25000 
N          N       0.58041   0.28056   0.25000 
N          N       0.71944   0.29985   0.25000 
C          C       0.15464   0.56364   0.75000 
C          C       0.43636   0.59100   0.75000 
C          C       0.40900   0.84536   0.75000 
N          N       0.10738   0.59749   0.75000 
N          N       0.40251   0.50989   0.75000 
N          N       0.49011   0.89262   0.75000 
C          C       0.84309   0.43862   0.75000 
C          C       0.56138   0.40447   0.75000 
C          C       0.59553   0.15691   0.75000 
C          C       0.89765   0.40528   0.75000 
C          C       0.59472   0.49237   0.75000 
C          C       0.50763   0.10235   0.75000 
H          H       0.87439   0.34534   0.75000 
H          H       0.65466   0.52905   0.75000 
H          H       0.47095   0.12561   0.75000 
C          C       0.98333   0.45691   0.75000 
C          C       0.54309   0.52642   0.75000 
C          C       0.47358   0.01667   0.75000 
H          H       0.01947   0.43286   0.75000 
H          H       0.56714   0.58661   0.75000 
H          H       0.41339   0.98053   0.75000 
C          C       0.01824   0.54298   0.75000 
C          C       0.45702   0.47526   0.75000 
C          C       0.52474   0.98176   0.75000 
C          C       0.96426   0.57862   0.75000 
C          C       0.42138   0.38564   0.75000 
C          C       0.61436   0.03574   0.75000 
H          H       0.98782   0.63874   0.75000 
H          H       0.36126   0.34908   0.75000 
H          H       0.65092   0.01218   0.75000 
C          C       0.87742   0.52527   0.75000 
C          C       0.47473   0.35215   0.75000 
C          C       0.64785   0.12258   0.75000 
H          H       0.84080   0.54868   0.75000 
H          H       0.45132   0.29212   0.75000 
H          H       0.70788   0.15920   0.75000 
C          C       0.36742   0.75401   0.75000 
C          C       0.24599   0.61341   0.75000 
C          C       0.38659   0.63258   0.75000 
C          C       0.28036   0.70135   0.75000 
C          C       0.29865   0.57901   0.75000 
C          C       0.42099   0.71964   0.75000 
H          H       0.23669   0.72988   0.75000 
H          H       0.27012   0.50681   0.75000 
H          H       0.49319   0.76331   0.75000 
C          C       0.61655   0.36657   0.75000 
C          C       0.63343   0.24998   0.75000 
C          C       0.75002   0.38345   0.75000 
N          N       0.70015   0.41959   0.75000 
N          N       0.58041   0.28056   0.75000 
N          N       0.71944   0.29985   0.75000 
