data_crystal

_cell_length_a    30.33300
_cell_length_b    30.33300
_cell_length_c    6.72454
_cell_angle_alpha 90.00000
_cell_angle_beta  90.00000
_cell_angle_gamma 120.00000

_space_group_name_Hall 'P 1'
_space_group_name_H-M_alt  'P 1'

loop_
_symmetry_equiv_pos_as_xyz
'x,y,z' 

loop_
_atom_site_label
_atom_site_type_symbol
_atom_site_fract_x
_atom_site_fract_y
_atom_site_fract_z
B          B       0.21964   0.60947   0.25000 
B          B       0.39053   0.61017   0.25000 
B          B       0.38983   0.78036   0.25000 
B          B       0.78036   0.39053   0.25000 
B          B       0.60947   0.38983   0.25000 
B          B       0.61017   0.21964   0.25000 
O          O       0.18960   0.55612   0.25000 
O          O       0.44388   0.63348   0.25000 
O          O       0.36652   0.81040   0.25000 
O          O       0.81040   0.44388   0.25000 
O          O       0.55612   0.36652   0.25000 
O          O       0.63348   0.18960   0.25000 
O          O       0.55612   0.18960   0.25000 
O          O       0.63348   0.44388   0.25000 
O          O       0.81040   0.36652   0.25000 
O          O       0.44388   0.81040   0.25000 
O          O       0.36652   0.55612   0.25000 
O          O       0.18960   0.63348   0.25000 
C          C       0.13934   0.54594   0.25000 
C          C       0.45406   0.59340   0.25000 
C          C       0.40660   0.86066   0.25000 
C          C       0.86066   0.45406   0.25000 
C          C       0.54594   0.40660   0.25000 
C          C       0.59340   0.13934   0.25000 
C          C       0.54594   0.13934   0.25000 
C          C       0.59340   0.45406   0.25000 
C          C       0.86066   0.40660   0.25000 
C          C       0.45406   0.86066   0.25000 
C          C       0.40660   0.54594   0.25000 
C          C       0.13934   0.59340   0.25000 
C          C       0.09536   0.49902   0.25000 
C          C       0.50098   0.59634   0.25000 
C          C       0.40366   0.90464   0.25000 
C          C       0.90464   0.50098   0.25000 
C          C       0.49902   0.40366   0.25000 
C          C       0.59634   0.09536   0.25000 
C          C       0.49902   0.09536   0.25000 
C          C       0.59634   0.50098   0.25000 
C          C       0.90464   0.40366   0.25000 
C          C       0.50098   0.90464   0.25000 
C          C       0.40366   0.49902   0.25000 
C          C       0.09536   0.59634   0.25000 
C          C       0.04736   0.49956   0.25000 
C          C       0.50044   0.54780   0.25000 
C          C       0.45220   0.95264   0.25000 
C          C       0.95264   0.50044   0.25000 
C          C       0.49956   0.45220   0.25000 
C          C       0.54780   0.04736   0.25000 
C          C       0.49956   0.04736   0.25000 
C          C       0.54780   0.50044   0.25000 
C          C       0.95264   0.45220   0.25000 
C          C       0.50044   0.95264   0.25000 
C          C       0.45220   0.49956   0.25000 
C          C       0.04736   0.54780   0.25000 
C          C       0.27892   0.63946   0.25000 
C          C       0.36054   0.63946   0.25000 
C          C       0.36054   0.72108   0.25000 
C          C       0.72108   0.36054   0.25000 
C          C       0.63946   0.36054   0.25000 
C          C       0.63946   0.27892   0.25000 
C          C       0.30677   0.69323   0.25000 
C          C       0.30677   0.61354   0.25000 
C          C       0.38646   0.69323   0.25000 
C          C       0.69323   0.30677   0.25000 
C          C       0.69323   0.38646   0.25000 
C          C       0.61354   0.30677   0.25000 
C          C       0.54631   0.54631   0.25000 
C          C       0.45369   0.00000   0.25000 
C          C       0.00000   0.45369   0.25000 
C          C       0.45369   0.45369   0.25000 
C          C       0.54631   0.00000   0.25000 
C          C       0.00000   0.54631   0.25000 
H          H       0.63344   0.53837   0.25000 
H          H       0.46472   0.37493   0.25000 
H          H       0.42080   0.42344   0.25000 
H          H       0.37031   0.46934   0.25000 
H          H       0.53576   0.62688   0.25000 
H          H       0.58083   0.57951   0.25000 
H          H       0.58521   0.29339   0.25000 
H          H       0.69832   0.28106   0.25000 
H          H       0.71613   0.41903   0.25000 
H          H       0.91168   0.53271   0.25000 
H          H       0.90941   0.37463   0.25000 
H          H       0.99924   0.57802   0.25000 
H          H       0.00114   0.42165   0.25000 
H          H       0.62710   0.09163   0.25000 
H          H       0.46734   0.09538   0.25000 
H          H       0.28444   0.58556   0.25000 
H          H       0.28050   0.71241   0.25000 
H          H       0.41871   0.70893   0.25000 
H          H       0.09724   0.46784   0.25000 
H          H       0.09603   0.62742   0.25000 
H          H       0.42096   0.99994   0.25000 
H          H       0.58599   0.00401   0.25000 
H          H       0.53266   0.90462   0.25000 
H          H       0.36986   0.90669   0.25000 
B          B       0.21964   0.60947   0.75000 
B          B       0.39053   0.61017   0.75000 
B          B       0.38983   0.78036   0.75000 
B          B       0.78036   0.39053   0.75000 
B          B       0.60947   0.38983   0.75000 
B          B       0.61017   0.21964   0.75000 
O          O       0.18960   0.55612   0.75000 
O          O       0.44388   0.63348   0.75000 
O          O       0.36652   0.81040   0.75000 
O          O       0.81040   0.44388   0.75000 
O          O       0.55612   0.36652   0.75000 
O          O       0.63348   0.18960   0.75000 
O          O       0.55612   0.18960   0.75000 
O          O       0.63348   0.44388   0.75000 
O          O       0.81040   0.36652   0.75000 
O          O       0.44388   0.81040   0.75000 
O          O       0.36652   0.55612   0.75000 
O          O       0.18960   0.63348   0.75000 
C          C       0.13934   0.54594   0.75000 
C          C       0.45406   0.59340   0.75000 
C          C       0.40660   0.86066   0.75000 
C          C       0.86066   0.45406   0.75000 
C          C       0.54594   0.40660   0.75000 
C          C       0.59340   0.13934   0.75000 
C          C       0.54594   0.13934   0.75000 
C          C       0.59340   0.45406   0.75000 
C          C       0.86066   0.40660   0.75000 
C          C       0.45406   0.86066   0.75000 
C          C       0.40660   0.54594   0.75000 
C          C       0.13934   0.59340   0.75000 
C          C       0.09536   0.49902   0.75000 
C          C       0.50098   0.59634   0.75000 
C          C       0.40366   0.90464   0.75000 
C          C       0.90464   0.50098   0.75000 
C          C       0.49902   0.40366   0.75000 
C          C       0.59634   0.09536   0.75000 
C          C       0.49902   0.09536   0.75000 
C          C       0.59634   0.50098   0.75000 
C          C       0.90464   0.40366   0.75000 
C          C       0.50098   0.90464   0.75000 
C          C       0.40366   0.49902   0.75000 
C          C       0.09536   0.59634   0.75000 
C          C       0.04736   0.49956   0.75000 
C          C       0.50044   0.54780   0.75000 
C          C       0.45220   0.95264   0.75000 
C          C       0.95264   0.50044   0.75000 
C          C       0.49956   0.45220   0.75000 
C          C       0.54780   0.04736   0.75000 
C          C       0.49956   0.04736   0.75000 
C          C       0.54780   0.50044   0.75000 
C          C       0.95264   0.45220   0.75000 
C          C       0.50044   0.95264   0.75000 
C          C       0.45220   0.49956   0.75000 
C          C       0.04736   0.54780   0.75000 
C          C       0.27892   0.63946   0.75000 
C          C       0.36054   0.63946   0.75000 
C          C       0.36054   0.72108   0.75000 
C          C       0.72108   0.36054   0.75000 
C          C       0.63946   0.36054   0.75000 
C          C       0.63946   0.27892   0.75000 
C          C       0.30677   0.69323   0.75000 
C          C       0.30677   0.61354   0.75000 
C          C       0.38646   0.69323   0.75000 
C          C       0.69323   0.30677   0.75000 
C          C       0.69323   0.38646   0.75000 
C          C       0.61354   0.30677   0.75000 
C          C       0.54631   0.54631   0.75000 
C          C       0.45369   0.00000   0.75000 
C          C       0.00000   0.45369   0.75000 
C          C       0.45369   0.45369   0.75000 
C          C       0.54631   0.00000   0.75000 
C          C       0.00000   0.54631   0.75000 
H          H       0.63344   0.53837   0.75000 
H          H       0.46472   0.37493   0.75000 
H          H       0.42080   0.42344   0.75000 
H          H       0.37031   0.46934   0.75000 
H          H       0.53576   0.62688   0.75000 
H          H       0.58083   0.57951   0.75000 
H          H       0.58521   0.29339   0.75000 
H          H       0.69832   0.28106   0.75000 
H          H       0.71613   0.41903   0.75000 
H          H       0.91168   0.53271   0.75000 
H          H       0.90941   0.37463   0.75000 
H          H       0.99924   0.57802   0.75000 
H          H       0.00114   0.42165   0.75000 
H          H       0.62710   0.09163   0.75000 
H          H       0.46734   0.09538   0.75000 
H          H       0.28444   0.58556   0.75000 
H          H       0.28050   0.71241   0.75000 
H          H       0.41871   0.70893   0.75000 
H          H       0.09724   0.46784   0.75000 
H          H       0.09603   0.62742   0.75000 
H          H       0.42096   0.99994   0.75000 
H          H       0.58599   0.00401   0.75000 
H          H       0.53266   0.90462   0.75000 
H          H       0.36986   0.90669   0.75000 
