data_crystal

_cell_length_a    25.33880
_cell_length_b    25.33880
_cell_length_c    8.49120
_cell_angle_alpha 90.00000
_cell_angle_beta  90.00000
_cell_angle_gamma 120.00000

_space_group_name_Hall 'P 1'
_space_group_name_H-M_alt  'P 1'

loop_
_symmetry_equiv_pos_as_xyz
'x,y,z' 

loop_
_atom_site_label
_atom_site_type_symbol
_atom_site_fract_x
_atom_site_fract_y
_atom_site_fract_z
C          C       0.49800   0.81296   0.68154 
C          C       0.18704   0.68504   0.68154 
C          C       0.31496   0.50200   0.68154 
C          C       0.50200   0.18704   0.18154 
C          C       0.81296   0.31496   0.18154 
C          C       0.68504   0.49800   0.18154 
C          C       0.46006   0.75169   0.71820 
C          C       0.24831   0.70837   0.71820 
C          C       0.29163   0.53994   0.71820 
C          C       0.53994   0.24831   0.21820 
C          C       0.75169   0.29163   0.21820 
C          C       0.70837   0.46006   0.21820 
C          C       0.48314   0.71293   0.73694 
C          C       0.28707   0.77021   0.73694 
C          C       0.22979   0.51686   0.73694 
C          C       0.51686   0.28707   0.23694 
C          C       0.71293   0.22979   0.23694 
C          C       0.77021   0.48314   0.23694 
C          C       0.54598   0.73516   0.73518 
C          C       0.26484   0.81082   0.73518 
C          C       0.18918   0.45402   0.73518 
C          C       0.45402   0.26484   0.23518 
C          C       0.73516   0.18918   0.23518 
C          C       0.81082   0.54598   0.23518 
C          C       0.58584   0.79817   0.70911 
C          C       0.20183   0.78767   0.70911 
C          C       0.21233   0.41416   0.70911 
C          C       0.41416   0.20183   0.20911 
C          C       0.79817   0.21233   0.20911 
C          C       0.78767   0.58584   0.20911 
C          C       0.56115   0.83628   0.68021 
C          C       0.16372   0.72487   0.68021 
C          C       0.27513   0.43885   0.68021 
C          C       0.43885   0.16372   0.18021 
C          C       0.83628   0.27513   0.18021 
C          C       0.72487   0.56115   0.18021 
N          N       0.65112   0.82570   0.71041 
N          N       0.17430   0.82542   0.71041 
N          N       0.17458   0.34888   0.71041 
N          N       0.34888   0.17430   0.21041 
N          N       0.82570   0.17458   0.21041 
N          N       0.82542   0.65112   0.21041 
C          C       0.68259   0.79848   0.73023 
C          C       0.20152   0.88411   0.73023 
C          C       0.11589   0.31741   0.73023 
C          C       0.31741   0.20152   0.23023 
C          C       0.79848   0.11589   0.23023 
C          C       0.88411   0.68259   0.23023 
C          C       0.74980   0.83379   0.73337 
C          C       0.16621   0.91601   0.73337 
C          C       0.08399   0.25020   0.73337 
C          C       0.25020   0.16621   0.23337 
C          C       0.83379   0.08399   0.23337 
C          C       0.91601   0.74980   0.23337 
C          C       0.78273   0.80336   0.75812 
C          C       0.19664   0.97937   0.75812 
C          C       0.02063   0.21727   0.75812 
C          C       0.21727   0.19664   0.25812 
C          C       0.80336   0.02063   0.25812 
C          C       0.97937   0.78273   0.25812 
C          C       0.84650   0.83605   0.76624 
C          C       0.16395   0.01045   0.76624 
C          C       0.98955   0.15350   0.76624 
C          C       0.15350   0.16395   0.26624 
C          C       0.83605   0.98955   0.26624 
C          C       0.01045   0.84650   0.26624 
C          C       0.87772   0.89890   0.74043 
C          C       0.10110   0.97882   0.74043 
C          C       0.02118   0.12228   0.74043 
C          C       0.12228   0.10110   0.24043 
C          C       0.89890   0.02118   0.24043 
C          C       0.97882   0.87772   0.24043 
C          C       0.84549   0.92920   0.72597 
C          C       0.07080   0.91629   0.72597 
C          C       0.08371   0.15451   0.72597 
C          C       0.15451   0.07080   0.22597 
C          C       0.92920   0.08371   0.22597 
C          C       0.91629   0.84549   0.22597 
C          C       0.78168   0.89771   0.71931 
C          C       0.10229   0.88397   0.71931 
C          C       0.11603   0.21832   0.71931 
C          C       0.21832   0.10229   0.21931 
C          C       0.89771   0.11603   0.21931 
C          C       0.88397   0.78168   0.21931 
N          N       0.88441   0.99379   0.72355 
N          N       0.00621   0.89062   0.72355 
N          N       0.10938   0.11559   0.72355 
N          N       0.11559   0.00621   0.22355 
N          N       0.99379   0.10938   0.22355 
N          N       0.89062   0.88441   0.22355 
C          C       0.94514   0.00215   0.73476 
C          C       0.99785   0.94299   0.73476 
C          C       0.05701   0.05486   0.73476 
C          C       0.05486   0.99785   0.23476 
C          C       0.00215   0.05701   0.23476 
C          C       0.94299   0.94514   0.23476 
C          C       0.94306   0.94557   0.73944 
C          C       0.05443   0.99749   0.73944 
C          C       0.00251   0.05694   0.73944 
C          C       0.05694   0.05443   0.23944 
C          C       0.94557   0.00251   0.23944 
C          C       0.99749   0.94306   0.23944 
H          H       0.56270   0.70405   0.75211 
H          H       0.29595   0.85865   0.75211 
H          H       0.14135   0.43730   0.75211 
H          H       0.43730   0.29595   0.25211 
H          H       0.70405   0.14135   0.25211 
H          H       0.85865   0.56270   0.25211 
H          H       0.59117   0.88416   0.65519 
H          H       0.11584   0.70701   0.65519 
H          H       0.29299   0.40883   0.65519 
H          H       0.40883   0.11584   0.15519 
H          H       0.88416   0.29299   0.15519 
H          H       0.70701   0.59117   0.15519 
H          H       0.66056   0.74976   0.74658 
H          H       0.25024   0.91080   0.74658 
H          H       0.08920   0.33944   0.74658 
H          H       0.33944   0.25024   0.24658 
H          H       0.74976   0.08920   0.24658 
H          H       0.91080   0.66056   0.24658 
H          H       0.75900   0.75457   0.77750 
H          H       0.24543   0.00443   0.77750 
H          H       0.99557   0.24100   0.77750 
H          H       0.24100   0.24543   0.27750 
H          H       0.75457   0.99557   0.27750 
H          H       0.00443   0.75900   0.27750 
H          H       0.86900   0.81247   0.80435 
H          H       0.18753   0.05653   0.80435 
H          H       0.94347   0.13100   0.80435 
H          H       0.13100   0.18753   0.30435 
H          H       0.81247   0.94347   0.30435 
H          H       0.05653   0.86900   0.30435 
H          H       0.75713   0.92201   0.70481 
H          H       0.07799   0.83512   0.70481 
H          H       0.16488   0.24287   0.70481 
H          H       0.24287   0.07799   0.20481 
H          H       0.92201   0.16488   0.20481 
H          H       0.83512   0.75713   0.20481 
C          C       0.86450   0.03398   0.65512 
C          C       0.96602   0.83052   0.65512 
C          C       0.16948   0.13550   0.65512 
C          C       0.13550   0.96602   0.15512 
C          C       0.03398   0.16948   0.15512 
C          C       0.83052   0.86450   0.15512 
C          C       0.83262   0.05228   0.77914 
C          C       0.94772   0.78034   0.77914 
C          C       0.21966   0.16738   0.77914 
C          C       0.16738   0.94772   0.27914 
C          C       0.05228   0.21966   0.27914 
C          C       0.78034   0.83262   0.27914 
C          C       0.39391   0.71411   0.72416 
C          C       0.28589   0.67980   0.72416 
C          C       0.32020   0.60609   0.72416 
C          C       0.60609   0.28589   0.22416 
C          C       0.71411   0.32020   0.22416 
C          C       0.67980   0.39391   0.22416 
C          C       0.38136   0.65384   0.73029 
C          C       0.34616   0.72752   0.73029 
C          C       0.27248   0.61864   0.73029 
C          C       0.61864   0.34616   0.23029 
C          C       0.65384   0.27248   0.23029 
C          C       0.72752   0.38136   0.23029 
N          N       0.43601   0.65034   0.75097 
N          N       0.34966   0.78567   0.75097 
N          N       0.21433   0.56399   0.75097 
N          N       0.56399   0.34966   0.25097 
N          N       0.65034   0.21433   0.25097 
N          N       0.78567   0.43601   0.25097 
C          C       0.44132   0.60843   0.86068 
C          C       0.39157   0.83289   0.86068 
C          C       0.16711   0.55868   0.86068 
C          C       0.55868   0.39157   0.36068 
C          C       0.60843   0.16711   0.36068 
C          C       0.83289   0.44132   0.36068 
C          C       0.47341   0.57744   0.78379 
C          C       0.42256   0.89597   0.78379 
C          C       0.10403   0.52659   0.78379 
C          C       0.52659   0.42256   0.28379 
C          C       0.57744   0.10403   0.28379 
C          C       0.89597   0.47341   0.28379 
H          H       0.47978   0.84183   0.65073 
H          H       0.15817   0.63795   0.65073 
H          H       0.36205   0.52022   0.65073 
H          H       0.52022   0.15817   0.15073 
H          H       0.84183   0.36205   0.15073 
H          H       0.63795   0.47978   0.15073 
H          H       0.83079   0.00942   0.56158 
H          H       0.99058   0.82137   0.56158 
H          H       0.17863   0.16921   0.56158 
H          H       0.16921   0.99058   0.06158 
H          H       0.00942   0.17863   0.06158 
H          H       0.82137   0.83079   0.06158 
H          H       0.90259   0.07341   0.59549 
H          H       0.92659   0.82918   0.59549 
H          H       0.17082   0.09741   0.59549 
H          H       0.09741   0.92659   0.09549 
H          H       0.07341   0.17082   0.09549 
H          H       0.82918   0.90259   0.09549 
H          H       0.83446   0.09529   0.74307 
H          H       0.90471   0.73917   0.74307 
H          H       0.26083   0.16554   0.74307 
H          H       0.16554   0.90471   0.24307 
H          H       0.09529   0.26083   0.24307 
H          H       0.73917   0.83446   0.24307 
H          H       0.85431   0.05851   0.89643 
H          H       0.94149   0.79580   0.89643 
H          H       0.20420   0.14569   0.89643 
H          H       0.14569   0.94149   0.39643 
H          H       0.05851   0.20420   0.39643 
H          H       0.79580   0.85431   0.39643 
H          H       0.78402   0.01677   0.79141 
H          H       0.98323   0.76725   0.79141 
H          H       0.23275   0.21598   0.79141 
H          H       0.21598   0.98323   0.29141 
H          H       0.01677   0.23275   0.29141 
H          H       0.76725   0.78402   0.29141 
H          H       0.39571   0.57362   0.90397 
H          H       0.42638   0.82209   0.90397 
H          H       0.17791   0.60429   0.90397 
H          H       0.60429   0.42638   0.40397 
H          H       0.57362   0.17791   0.40397 
H          H       0.82209   0.39571   0.40397 
H          H       0.46754   0.63390   0.96652 
H          H       0.36610   0.83364   0.96652 
H          H       0.16636   0.53246   0.96652 
H          H       0.53246   0.36610   0.46652 
H          H       0.63390   0.16636   0.46652 
H          H       0.83364   0.46754   0.46652 
H          H       0.52306   0.60350   0.80780 
H          H       0.39650   0.91956   0.80780 
H          H       0.08044   0.47694   0.80780 
H          H       0.47694   0.39650   0.30780 
H          H       0.60350   0.08044   0.30780 
H          H       0.91956   0.52306   0.30780 
H          H       0.46650   0.57369   0.65427 
H          H       0.42631   0.89281   0.65427 
H          H       0.10719   0.53350   0.65427 
H          H       0.53350   0.42631   0.15427 
H          H       0.57369   0.10719   0.15427 
H          H       0.89281   0.46650   0.15427 
H          H       0.45542   0.53106   0.83378 
H          H       0.46894   0.92436   0.83378 
H          H       0.07564   0.54458   0.83378 
H          H       0.54458   0.46894   0.33378 
H          H       0.53106   0.07564   0.33378 
H          H       0.92436   0.45542   0.33378 
