data_crystal
 
_cell_length_a    25.07610
_cell_length_b    25.07610
_cell_length_c    8.26900
_cell_angle_alpha 90.00000
_cell_angle_beta  90.00000
_cell_angle_gamma 120.00000
 
_space_group_name_Hall 'P 1'
_space_group_name_H-M_alt  'P 1'
 
loop_
_symmetry_equiv_pos_as_xyz
 'x,y,z' 
 
loop_
_atom_site_label
_atom_site_type_symbol
_atom_site_fract_x
_atom_site_fract_y
_atom_site_fract_z
C          C       0.49966   0.80863   0.31857 
C          C       0.19137   0.69103   0.31857 
C          C       0.30897   0.50034   0.31857 
C          C       0.45923   0.74728   0.27379 
C          C       0.25272   0.71195   0.27379 
C          C       0.28805   0.54077   0.27379 
C          C       0.48206   0.70801   0.23950 
C          C       0.29199   0.77405   0.23950 
C          C       0.22595   0.51794   0.23950 
C          C       0.54638   0.73189   0.22880 
C          C       0.26811   0.81449   0.22880 
C          C       0.18551   0.45362   0.22880 
C          C       0.58771   0.79404   0.27000 
C          C       0.20596   0.79367   0.27000 
C          C       0.20633   0.41229   0.27000 
C          C       0.56360   0.83201   0.31556 
C          C       0.16799   0.73159   0.31556 
C          C       0.26841   0.43640   0.31556 
N          N       0.64981   0.82026   0.27087 
N          N       0.17974   0.82955   0.27087 
N          N       0.17045   0.35019   0.27087 
C          C       0.68590   0.79436   0.26882 
C          C       0.20564   0.89154   0.26882 
C          C       0.10846   0.31410   0.26882 
C          C       0.75057   0.83056   0.27202 
C          C       0.16944   0.92001   0.27202 
C          C       0.07999   0.24943   0.27202 
C          C       0.78607   0.80355   0.31859 
C          C       0.19645   0.98252   0.31859 
C          C       0.01748   0.21393   0.31859 
C          C       0.85069   0.83870   0.32286 
C          C       0.16130   0.01199   0.32286 
C          C       0.98801   0.14931   0.32286 
C          C       0.88077   0.90108   0.27846 
C          C       0.09892   0.97969   0.27846 
C          C       0.02031   0.11923   0.27846 
C          C       0.84666   0.92966   0.24396 
C          C       0.07034   0.91700   0.24396 
C          C       0.08300   0.15334   0.24396 
C          C       0.78178   0.89405   0.23242 
C          C       0.10595   0.88773   0.23242 
C          C       0.11227   0.21822   0.23242 
N          N       0.88564   0.99077   0.22096 
N          N       0.00923   0.89487   0.22096 
N          N       0.10513   0.11436   0.22096 
C          C       0.94421   0.00220   0.25160 
C          C       0.99780   0.94201   0.25160 
C          C       0.05799   0.05579   0.25160 
C          C       0.94282   0.94534   0.26152 
C          C       0.05466   0.99748   0.26152 
C          C       0.00252   0.05718   0.26152 
H          H       0.56325   0.70473   0.19050 
H          H       0.29527   0.85852   0.19050 
H          H       0.14148   0.43675   0.19050 
H          H       0.59245   0.87692   0.34787 
H          H       0.12308   0.71553   0.34787 
H          H       0.28447   0.40755   0.34787 
H          H       0.66593   0.74742   0.27025 
H          H       0.25258   0.91851   0.27025 
H          H       0.08149   0.33407   0.27025 
H          H       0.76524   0.75808   0.35083 
H          H       0.24192   0.00716   0.35083 
H          H       0.99284   0.23476   0.35083 
H          H       0.87491   0.81896   0.36092 
H          H       0.18104   0.05595   0.36092 
H          H       0.94405   0.12509   0.36092 
H          H       0.75714   0.91391   0.19452 
H          H       0.08609   0.84323   0.19452 
H          H       0.15677   0.24286   0.19452 
C          C       0.86650   0.03095   0.14782 
C          C       0.96905   0.83555   0.14782 
C          C       0.16445   0.13350   0.14782 
C          C       0.82197   0.04669   0.23934 
C          C       0.95331   0.77528   0.23934 
C          C       0.22472   0.17803   0.23934 
C          C       0.39540   0.71325   0.25636 
C          C       0.28675   0.68215   0.25636 
C          C       0.31785   0.60460   0.25636 
C          C       0.38098   0.65127   0.24641 
C          C       0.34873   0.72971   0.24641 
C          C       0.27029   0.61902   0.24641 
N          N       0.43420   0.65015   0.21599 
N          N       0.34985   0.78405   0.21599 
N          N       0.21595   0.56580   0.21599 
C          C       0.44137   0.60169   0.14280 
C          C       0.39831   0.83968   0.14280 
C          C       0.16032   0.55863   0.14280 
C          C       0.47613   0.57404   0.23419 
C          C       0.42596   0.90209   0.23419 
C          C       0.09791   0.52387   0.23419 
H          H       0.48333   0.83595   0.35608 
H          H       0.16405   0.64738   0.35608 
H          H       0.35262   0.51667   0.35608 
H          H       0.84302   0.00787   0.03660 
H          H       0.99213   0.83515   0.03660 
H          H       0.16485   0.15698   0.03660 
H          H       0.90623   0.07368   0.10874 
H          H       0.92632   0.83255   0.10874 
H          H       0.16745   0.09377   0.10874 
H          H       0.80498   0.06845   0.15553 
H          H       0.93155   0.73653   0.15553 
H          H       0.26347   0.19502   0.15553 
H          H       0.84444   0.07869   0.33802 
H          H       0.92131   0.76575   0.33802 
H          H       0.23425   0.15556   0.33802 
H          H       0.78238   0.00616   0.28914 
H          H       0.99384   0.77622   0.28914 
H          H       0.22378   0.21762   0.28914 
H          H       0.46700   0.62154   0.03159 
H          H       0.37846   0.84546   0.03159 
H          H       0.15454   0.53300   0.03159 
H          H       0.39712   0.56411   0.10378 
H          H       0.43589   0.83301   0.10378 
H          H       0.16699   0.60288   0.10378 
H          H       0.51983   0.60923   0.28353 
H          H       0.39077   0.91060   0.28353 
H          H       0.08940   0.48017   0.28353 
H          H       0.48553   0.54608   0.15043 
H          H       0.45392   0.93945   0.15043 
H          H       0.06055   0.51447   0.15043 
H          H       0.44938   0.54435   0.33318 
H          H       0.45565   0.90503   0.33318 
H          H       0.09497   0.55062   0.33318 
C          C       0.49966   0.80863   0.81857 
C          C       0.19137   0.69103   0.81857 
C          C       0.30897   0.50034   0.81857 
C          C       0.45923   0.74728   0.77379 
C          C       0.25272   0.71195   0.77379 
C          C       0.28805   0.54077   0.77379 
C          C       0.48206   0.70801   0.73950 
C          C       0.29199   0.77405   0.73950 
C          C       0.22595   0.51794   0.73950 
C          C       0.54638   0.73189   0.72880 
C          C       0.26811   0.81449   0.72880 
C          C       0.18551   0.45362   0.72880 
C          C       0.58771   0.79404   0.77001 
C          C       0.20596   0.79367   0.77001 
C          C       0.20633   0.41229   0.77001 
C          C       0.56360   0.83201   0.81556 
C          C       0.16799   0.73159   0.81556 
C          C       0.26841   0.43640   0.81556 
N          N       0.64981   0.82026   0.77087 
N          N       0.17974   0.82955   0.77087 
N          N       0.17045   0.35019   0.77087 
C          C       0.68590   0.79436   0.76882 
C          C       0.20564   0.89154   0.76882 
C          C       0.10846   0.31410   0.76882 
C          C       0.75057   0.83056   0.77202 
C          C       0.16944   0.92001   0.77202 
C          C       0.07999   0.24943   0.77202 
C          C       0.78607   0.80355   0.81859 
C          C       0.19645   0.98252   0.81859 
C          C       0.01748   0.21393   0.81859 
C          C       0.85069   0.83870   0.82285 
C          C       0.16130   0.01199   0.82285 
C          C       0.98801   0.14931   0.82285 
C          C       0.88077   0.90108   0.77847 
C          C       0.09892   0.97969   0.77847 
C          C       0.02031   0.11923   0.77847 
C          C       0.84666   0.92966   0.74397 
C          C       0.07034   0.91700   0.74397 
C          C       0.08300   0.15334   0.74397 
C          C       0.78178   0.89405   0.73242 
C          C       0.10595   0.88773   0.73242 
C          C       0.11227   0.21822   0.73242 
N          N       0.88564   0.99077   0.72096 
N          N       0.00923   0.89487   0.72096 
N          N       0.10513   0.11436   0.72096 
C          C       0.94421   0.00220   0.75160 
C          C       0.99780   0.94201   0.75160 
C          C       0.05799   0.05579   0.75160 
C          C       0.94282   0.94534   0.76152 
C          C       0.05466   0.99748   0.76152 
C          C       0.00252   0.05718   0.76152 
H          H       0.56325   0.70473   0.69050 
H          H       0.29527   0.85852   0.69050 
H          H       0.14148   0.43675   0.69050 
H          H       0.59245   0.87692   0.84787 
H          H       0.12308   0.71553   0.84787 
H          H       0.28447   0.40755   0.84787 
H          H       0.66593   0.74742   0.77025 
H          H       0.25258   0.91851   0.77025 
H          H       0.08149   0.33407   0.77025 
H          H       0.76524   0.75808   0.85083 
H          H       0.24192   0.00716   0.85083 
H          H       0.99284   0.23476   0.85083 
H          H       0.87491   0.81896   0.86093 
H          H       0.18104   0.05595   0.86093 
H          H       0.94405   0.12509   0.86093 
H          H       0.75714   0.91391   0.69451 
H          H       0.08609   0.84323   0.69451 
H          H       0.15677   0.24286   0.69451 
C          C       0.86650   0.03095   0.64782 
C          C       0.96905   0.83555   0.64782 
C          C       0.16445   0.13350   0.64782 
C          C       0.82197   0.04669   0.73934 
C          C       0.95331   0.77528   0.73934 
C          C       0.22472   0.17803   0.73934 
C          C       0.39540   0.71325   0.75636 
C          C       0.28675   0.68215   0.75636 
C          C       0.31785   0.60460   0.75636 
C          C       0.38098   0.65127   0.74641 
C          C       0.34873   0.72971   0.74641 
C          C       0.27029   0.61902   0.74641 
N          N       0.43420   0.65015   0.71599 
N          N       0.34985   0.78405   0.71599 
N          N       0.21595   0.56580   0.71599 
C          C       0.44137   0.60169   0.64280 
C          C       0.39831   0.83968   0.64280 
C          C       0.16032   0.55863   0.64280 
C          C       0.47613   0.57404   0.73419 
C          C       0.42596   0.90209   0.73419 
C          C       0.09791   0.52387   0.73419 
H          H       0.48333   0.83595   0.85608 
H          H       0.16405   0.64738   0.85608 
H          H       0.35262   0.51667   0.85608 
H          H       0.84302   0.00787   0.53660 
H          H       0.99213   0.83515   0.53660 
H          H       0.16485   0.15698   0.53660 
H          H       0.90623   0.07368   0.60874 
H          H       0.92632   0.83255   0.60874 
H          H       0.16745   0.09377   0.60874 
H          H       0.80498   0.06845   0.65554 
H          H       0.93155   0.73653   0.65554 
H          H       0.26347   0.19502   0.65554 
H          H       0.84444   0.07869   0.83801 
H          H       0.92131   0.76575   0.83801 
H          H       0.23425   0.15556   0.83801 
H          H       0.78238   0.00616   0.78914 
H          H       0.99384   0.77622   0.78914 
H          H       0.22378   0.21762   0.78914 
H          H       0.46700   0.62154   0.53159 
H          H       0.37846   0.84546   0.53159 
H          H       0.15454   0.53300   0.53159 
H          H       0.39712   0.56411   0.60377 
H          H       0.43589   0.83301   0.60377 
H          H       0.16699   0.60288   0.60377 
H          H       0.51983   0.60923   0.78353 
H          H       0.39077   0.91060   0.78353 
H          H       0.08940   0.48017   0.78353 
H          H       0.48553   0.54608   0.65043 
H          H       0.45392   0.93945   0.65043 
H          H       0.06055   0.51447   0.65043 
H          H       0.44938   0.54435   0.83318 
H          H       0.45565   0.90503   0.83318 
H          H       0.09497   0.55062   0.83318 
