data_crystal

_cell_length_a    35.91830
_cell_length_b    35.91830
_cell_length_c    8.10720
_cell_angle_alpha 90.00000
_cell_angle_beta  90.00000
_cell_angle_gamma 120.00000

_space_group_name_Hall 'P 1'
_space_group_name_H-M_alt  'P 1'

loop_
_symmetry_equiv_pos_as_xyz
'x,y,z' 

loop_
_atom_site_label
_atom_site_type_symbol
_atom_site_fract_x
_atom_site_fract_y
_atom_site_fract_z
C          C       0.76957   0.44731   0.16389 
C          C       0.55269   0.32226   0.16389 
C          C       0.67774   0.23043   0.16389 
C          C       0.23043   0.55269   0.16389 
C          C       0.44731   0.67774   0.16389 
C          C       0.32226   0.76957   0.16389 
C          C       0.74925   0.40370   0.20791 
C          C       0.59630   0.34555   0.20791 
C          C       0.65445   0.25075   0.20791 
C          C       0.25075   0.59630   0.20791 
C          C       0.40370   0.65445   0.20791 
C          C       0.34555   0.74925   0.20791 
C          C       0.77382   0.38456   0.24320 
C          C       0.61544   0.38926   0.24320 
C          C       0.61074   0.22618   0.24320 
C          C       0.22618   0.61544   0.24320 
C          C       0.38456   0.61074   0.24320 
C          C       0.38926   0.77382   0.24320 
C          C       0.81903   0.41020   0.25631 
C          C       0.58980   0.40883   0.25631 
C          C       0.59117   0.18097   0.25631 
C          C       0.18097   0.58980   0.25631 
C          C       0.41020   0.59117   0.25631 
C          C       0.40883   0.81903   0.25631 
C          C       0.84013   0.45459   0.21697 
C          C       0.54541   0.38554   0.21697 
C          C       0.61446   0.15987   0.21697 
C          C       0.15987   0.54541   0.21697 
C          C       0.45459   0.61446   0.21697 
C          C       0.38554   0.84013   0.21697 
C          C       0.81462   0.47260   0.16886 
C          C       0.52740   0.34202   0.16886 
C          C       0.65798   0.18538   0.16886 
C          C       0.18538   0.52740   0.16886 
C          C       0.47260   0.65798   0.16886 
C          C       0.34202   0.81462   0.16886 
C          C       0.88523   0.48076   0.22206 
C          C       0.51924   0.40447   0.22206 
C          C       0.59553   0.11477   0.22206 
C          C       0.11477   0.51924   0.22206 
C          C       0.48076   0.59553   0.22206 
C          C       0.40447   0.88523   0.22206 
N          N       0.91127   0.46399   0.24300 
N          N       0.53601   0.44728   0.24300 
N          N       0.55272   0.08873   0.24300 
N          N       0.08873   0.53601   0.24300 
N          N       0.46399   0.55272   0.24300 
N          N       0.44728   0.91127   0.24300 
C          C       0.95469   0.48301   0.24825 
C          C       0.51699   0.47168   0.24825 
C          C       0.52832   0.04531   0.24825 
C          C       0.04531   0.51699   0.24825 
C          C       0.48301   0.52832   0.24825 
C          C       0.47168   0.95469   0.24825 
H          H       0.83664   0.39679   0.29502 
H          H       0.60321   0.43985   0.29502 
H          H       0.56015   0.16336   0.29502 
H          H       0.16336   0.60321   0.29502 
H          H       0.39679   0.56015   0.29502 
H          H       0.43985   0.83664   0.29502 
H          H       0.82858   0.50435   0.13654 
H          H       0.49565   0.32423   0.13654 
H          H       0.67577   0.17142   0.13654 
H          H       0.17142   0.49565   0.13654 
H          H       0.50435   0.67577   0.13654 
H          H       0.32423   0.82858   0.13654 
C          C       0.70614   0.37205   0.22425 
C          C       0.62795   0.33409   0.22425 
C          C       0.66591   0.29386   0.22425 
C          C       0.29386   0.62795   0.22425 
C          C       0.37205   0.66591   0.22425 
C          C       0.33409   0.70614   0.22425 
C          C       0.70614   0.33282   0.23424 
C          C       0.66718   0.37332   0.23424 
C          C       0.62668   0.29386   0.23424 
C          C       0.29386   0.66718   0.23424 
C          C       0.33282   0.62668   0.23424 
C          C       0.37332   0.70614   0.23424 
N          N       0.74732   0.34174   0.26586 
N          N       0.65826   0.40558   0.26586 
N          N       0.59442   0.25268   0.26586 
N          N       0.25268   0.65826   0.26586 
N          N       0.34174   0.59442   0.26586 
N          N       0.40558   0.74732   0.26586 
C          C       0.76151   0.31442   0.34090 
C          C       0.68558   0.44709   0.34090 
C          C       0.55291   0.23849   0.34090 
C          C       0.23849   0.68558   0.34090 
C          C       0.31442   0.55291   0.34090 
C          C       0.44709   0.76151   0.34090 
C          C       0.79354   0.30433   0.24984 
C          C       0.69567   0.48921   0.24984 
C          C       0.51079   0.20646   0.24984 
C          C       0.20646   0.69567   0.24984 
C          C       0.30433   0.51079   0.24984 
C          C       0.48921   0.79354   0.24984 
H          H       0.75223   0.46070   0.12589 
H          H       0.53930   0.29153   0.12589 
H          H       0.70847   0.24777   0.12589 
H          H       0.24777   0.53930   0.12589 
H          H       0.46070   0.70847   0.12589 
H          H       0.29153   0.75223   0.12589 
H          H       0.73418   0.28431   0.38040 
H          H       0.71569   0.44987   0.38040 
H          H       0.55013   0.26582   0.38040 
H          H       0.26582   0.71569   0.38040 
H          H       0.28431   0.55013   0.38040 
H          H       0.44987   0.73418   0.38040 
H          H       0.77746   0.33083   0.45433 
H          H       0.66917   0.44663   0.45433 
H          H       0.55337   0.22254   0.45433 
H          H       0.22254   0.66917   0.45433 
H          H       0.33083   0.55337   0.45433 
H          H       0.44663   0.77746   0.45433 
H          H       0.80645   0.29057   0.33732 
H          H       0.70943   0.51588   0.33732 
H          H       0.48412   0.19355   0.33732 
H          H       0.19355   0.70943   0.33732 
H          H       0.29057   0.48412   0.33732 
H          H       0.51588   0.80645   0.33732 
H          H       0.82046   0.33282   0.19648 
H          H       0.66718   0.48764   0.19648 
H          H       0.51236   0.17954   0.19648 
H          H       0.17954   0.66718   0.19648 
H          H       0.33282   0.51236   0.19648 
H          H       0.48764   0.82046   0.19648 
H          H       0.77822   0.28105   0.15164 
H          H       0.71895   0.49717   0.15164 
H          H       0.50283   0.22178   0.15164 
H          H       0.22178   0.71895   0.15164 
H          H       0.28105   0.50283   0.15164 
H          H       0.49717   0.77822   0.15164 
C          C       0.97202   0.45540   0.25043 
C          C       0.54460   0.51662   0.25043 
C          C       0.48338   0.02798   0.25043 
C          C       0.02798   0.54460   0.25043 
C          C       0.45540   0.48338   0.25043 
C          C       0.51662   0.97202   0.25043 
C          C       0.01676   0.47208   0.25013 
C          C       0.52792   0.54468   0.25013 
C          C       0.45532   0.98324   0.25013 
C          C       0.98324   0.52792   0.25013 
C          C       0.47208   0.45532   0.25013 
C          C       0.54468   0.01676   0.25013 
H          H       0.89854   0.51319   0.20602 
H          H       0.48681   0.38535   0.20602 
H          H       0.61465   0.10146   0.20602 
H          H       0.10146   0.48681   0.20602 
H          H       0.51319   0.61465   0.20602 
H          H       0.38535   0.89854   0.20602 
H          H       0.95208   0.42274   0.25104 
H          H       0.57726   0.52934   0.25104 
H          H       0.47066   0.04792   0.25104 
H          H       0.04792   0.57726   0.25104 
H          H       0.42274   0.47066   0.25104 
H          H       0.52934   0.95208   0.25104 
H          H       0.02804   0.45103   0.25104 
H          H       0.54897   0.57701   0.25104 
H          H       0.42299   0.97196   0.25104 
H          H       0.97196   0.54897   0.25104 
H          H       0.45103   0.42299   0.25104 
H          H       0.57701   0.02804   0.25104 
C          C       0.76957   0.44731   0.66389 
C          C       0.55269   0.32226   0.66389 
C          C       0.67774   0.23043   0.66389 
C          C       0.23043   0.55269   0.66389 
C          C       0.44731   0.67774   0.66389 
C          C       0.32226   0.76957   0.66389 
C          C       0.74925   0.40370   0.70791 
C          C       0.59630   0.34555   0.70791 
C          C       0.65445   0.25075   0.70791 
C          C       0.25075   0.59630   0.70791 
C          C       0.40370   0.65445   0.70791 
C          C       0.34555   0.74925   0.70791 
C          C       0.77382   0.38456   0.74320 
C          C       0.61544   0.38926   0.74320 
C          C       0.61074   0.22618   0.74320 
C          C       0.22618   0.61544   0.74320 
C          C       0.38456   0.61074   0.74320 
C          C       0.38926   0.77382   0.74320 
C          C       0.81903   0.41020   0.75631 
C          C       0.58980   0.40883   0.75631 
C          C       0.59117   0.18097   0.75631 
C          C       0.18097   0.58980   0.75631 
C          C       0.41020   0.59117   0.75631 
C          C       0.40883   0.81903   0.75631 
C          C       0.84013   0.45459   0.71697 
C          C       0.54541   0.38554   0.71697 
C          C       0.61446   0.15987   0.71697 
C          C       0.15987   0.54541   0.71697 
C          C       0.45459   0.61446   0.71697 
C          C       0.38554   0.84013   0.71697 
C          C       0.81462   0.47260   0.66886 
C          C       0.52740   0.34202   0.66886 
C          C       0.65798   0.18538   0.66886 
C          C       0.18538   0.52740   0.66886 
C          C       0.47260   0.65798   0.66886 
C          C       0.34202   0.81462   0.66886 
C          C       0.88523   0.48076   0.72206 
C          C       0.51924   0.40447   0.72206 
C          C       0.59553   0.11477   0.72206 
C          C       0.11477   0.51924   0.72206 
C          C       0.48076   0.59553   0.72206 
C          C       0.40447   0.88523   0.72206 
N          N       0.91127   0.46399   0.74301 
N          N       0.53601   0.44728   0.74301 
N          N       0.55272   0.08873   0.74301 
N          N       0.08873   0.53601   0.74301 
N          N       0.46399   0.55272   0.74301 
N          N       0.44728   0.91127   0.74301 
C          C       0.95469   0.48301   0.74825 
C          C       0.51699   0.47168   0.74825 
C          C       0.52832   0.04531   0.74825 
C          C       0.04531   0.51699   0.74825 
C          C       0.48301   0.52832   0.74825 
C          C       0.47168   0.95469   0.74825 
H          H       0.83664   0.39679   0.79502 
H          H       0.60321   0.43985   0.79502 
H          H       0.56015   0.16336   0.79502 
H          H       0.16336   0.60321   0.79502 
H          H       0.39679   0.56015   0.79502 
H          H       0.43985   0.83664   0.79502 
H          H       0.82858   0.50435   0.63654 
H          H       0.49565   0.32423   0.63654 
H          H       0.67577   0.17142   0.63654 
H          H       0.17142   0.49565   0.63654 
H          H       0.50435   0.67577   0.63654 
H          H       0.32423   0.82858   0.63654 
C          C       0.70614   0.37205   0.72425 
C          C       0.62795   0.33409   0.72425 
C          C       0.66591   0.29386   0.72425 
C          C       0.29386   0.62795   0.72425 
C          C       0.37205   0.66591   0.72425 
C          C       0.33409   0.70614   0.72425 
C          C       0.70614   0.33282   0.73423 
C          C       0.66718   0.37332   0.73423 
C          C       0.62668   0.29386   0.73423 
C          C       0.29386   0.66718   0.73423 
C          C       0.33282   0.62668   0.73423 
C          C       0.37332   0.70614   0.73423 
N          N       0.74732   0.34174   0.76585 
N          N       0.65826   0.40558   0.76585 
N          N       0.59442   0.25268   0.76585 
N          N       0.25268   0.65826   0.76585 
N          N       0.34174   0.59442   0.76585 
N          N       0.40558   0.74732   0.76585 
C          C       0.76151   0.31442   0.84089 
C          C       0.68558   0.44709   0.84089 
C          C       0.55291   0.23849   0.84089 
C          C       0.23849   0.68558   0.84089 
C          C       0.31442   0.55291   0.84089 
C          C       0.44709   0.76151   0.84089 
C          C       0.79354   0.30433   0.74984 
C          C       0.69567   0.48921   0.74984 
C          C       0.51079   0.20646   0.74984 
C          C       0.20646   0.69567   0.74984 
C          C       0.30433   0.51079   0.74984 
C          C       0.48921   0.79354   0.74984 
H          H       0.75223   0.46070   0.62589 
H          H       0.53930   0.29153   0.62589 
H          H       0.70847   0.24777   0.62589 
H          H       0.24777   0.53930   0.62589 
H          H       0.46070   0.70847   0.62589 
H          H       0.29153   0.75223   0.62589 
H          H       0.73418   0.28431   0.88040 
H          H       0.71569   0.44987   0.88040 
H          H       0.55013   0.26582   0.88040 
H          H       0.26582   0.71569   0.88040 
H          H       0.28431   0.55013   0.88040 
H          H       0.44987   0.73418   0.88040 
H          H       0.77746   0.33083   0.95433 
H          H       0.66917   0.44663   0.95433 
H          H       0.55337   0.22254   0.95433 
H          H       0.22254   0.66917   0.95433 
H          H       0.33083   0.55337   0.95433 
H          H       0.44663   0.77746   0.95433 
H          H       0.80645   0.29057   0.83732 
H          H       0.70943   0.51588   0.83732 
H          H       0.48412   0.19355   0.83732 
H          H       0.19355   0.70943   0.83732 
H          H       0.29057   0.48412   0.83732 
H          H       0.51588   0.80645   0.83732 
H          H       0.82046   0.33282   0.69648 
H          H       0.66718   0.48764   0.69648 
H          H       0.51236   0.17954   0.69648 
H          H       0.17954   0.66718   0.69648 
H          H       0.33282   0.51236   0.69648 
H          H       0.48764   0.82046   0.69648 
H          H       0.77822   0.28105   0.65164 
H          H       0.71895   0.49717   0.65164 
H          H       0.50283   0.22178   0.65164 
H          H       0.22178   0.71895   0.65164 
H          H       0.28105   0.50283   0.65164 
H          H       0.49717   0.77822   0.65164 
C          C       0.97202   0.45540   0.75043 
C          C       0.54460   0.51662   0.75043 
C          C       0.48338   0.02798   0.75043 
C          C       0.02798   0.54460   0.75043 
C          C       0.45540   0.48338   0.75043 
C          C       0.51662   0.97202   0.75043 
C          C       0.01676   0.47208   0.75013 
C          C       0.52792   0.54468   0.75013 
C          C       0.45532   0.98324   0.75013 
C          C       0.98324   0.52792   0.75013 
C          C       0.47208   0.45532   0.75013 
C          C       0.54468   0.01676   0.75013 
H          H       0.89854   0.51319   0.70601 
H          H       0.48681   0.38535   0.70601 
H          H       0.61465   0.10146   0.70601 
H          H       0.10146   0.48681   0.70601 
H          H       0.51319   0.61465   0.70601 
H          H       0.38535   0.89854   0.70601 
H          H       0.95208   0.42274   0.75104 
H          H       0.57726   0.52934   0.75104 
H          H       0.47066   0.04792   0.75104 
H          H       0.04792   0.57726   0.75104 
H          H       0.42274   0.47066   0.75104 
H          H       0.52934   0.95208   0.75104 
H          H       0.02804   0.45103   0.75103 
H          H       0.54897   0.57701   0.75103 
H          H       0.42299   0.97196   0.75103 
H          H       0.97196   0.54897   0.75103 
H          H       0.45103   0.42299   0.75103 
H          H       0.57701   0.02804   0.75103 
