data_crystal
 
_cell_length_a    35.96750
_cell_length_b    35.96750
_cell_length_c    8.76850
_cell_angle_alpha 90.00000
_cell_angle_beta  90.00000
_cell_angle_gamma 120.00000
 
_symmetry_space_group_name_Hall 'P 1'
_symmetry_space_group_name_H-M  'P 1'
 
loop_
_symmetry_equiv_pos_as_xyz
 'x,y,z' 
 
loop_
_atom_site_label
_atom_site_type_symbol
_atom_site_fract_x
_atom_site_fract_y
_atom_site_fract_z
C          C       0.10365   0.11561   0.67779 
C          C       0.88439   0.98804   0.67779 
C          C       0.01196   0.89635   0.67779 
C          C       0.89635   0.88439   0.17779 
C          C       0.11561   0.01196   0.17779 
C          C       0.98804   0.10365   0.17779 
C          C       0.08257   0.07158   0.71418 
C          C       0.92842   0.01099   0.71418 
C          C       0.98901   0.91743   0.71418 
C          C       0.91743   0.92842   0.21418 
C          C       0.07158   0.98901   0.21418 
C          C       0.01099   0.08257   0.21418 
C          C       0.10749   0.05252   0.74014 
C          C       0.94748   0.05497   0.74014 
C          C       0.94503   0.89251   0.74014 
C          C       0.89251   0.94748   0.24014 
C          C       0.05252   0.94503   0.24014 
C          C       0.05497   0.10749   0.24014 
C          C       0.15282   0.07764   0.74919 
C          C       0.92236   0.07518   0.74919 
C          C       0.92482   0.84718   0.74919 
C          C       0.84718   0.92236   0.24919 
C          C       0.07764   0.92482   0.24919 
C          C       0.07518   0.15282   0.24919 
C          C       0.17403   0.12251   0.72424 
C          C       0.87749   0.05152   0.72424 
C          C       0.94848   0.82597   0.72424 
C          C       0.82597   0.87749   0.22424 
C          C       0.12251   0.94848   0.22424 
C          C       0.05152   0.17403   0.22424 
C          C       0.14859   0.14104   0.68725 
C          C       0.85896   0.00755   0.68725 
C          C       0.99245   0.85141   0.68725 
C          C       0.85141   0.85896   0.18725 
C          C       0.14104   0.99245   0.18725 
C          C       0.00755   0.14859   0.18725 
C          C       0.21905   0.14858   0.73191 
C          C       0.85142   0.07047   0.73191 
C          C       0.92953   0.78095   0.73191 
C          C       0.78095   0.85142   0.23191 
C          C       0.14858   0.92953   0.23191 
C          C       0.07047   0.21905   0.23191 
N          N       0.24501   0.13164   0.74707 
N          N       0.86836   0.11337   0.74707 
N          N       0.88663   0.75499   0.74707 
N          N       0.75499   0.86836   0.24707 
N          N       0.13164   0.88663   0.24707 
N          N       0.11337   0.24501   0.24707 
C          C       0.28834   0.15050   0.75450 
C          C       0.84950   0.13784   0.75450 
C          C       0.86216   0.71166   0.75450 
C          C       0.71166   0.84950   0.25450 
C          C       0.15050   0.86216   0.25450 
C          C       0.13784   0.28834   0.25450 
H          H       0.17047   0.06342   0.77441 
H          H       0.93658   0.10705   0.77441 
H          H       0.89295   0.82953   0.77441 
H          H       0.82953   0.93658   0.27441 
H          H       0.06342   0.89295   0.27441 
H          H       0.10705   0.17047   0.27441 
H          H       0.16257   0.17317   0.66392 
H          H       0.82683   0.98940   0.66392 
H          H       0.01060   0.83743   0.66392 
H          H       0.83743   0.82683   0.16392 
H          H       0.17317   0.01060   0.16392 
H          H       0.98940   0.16257   0.16392 
C          C       0.03935   0.03927   0.72730 
C          C       0.96073   0.00008   0.72730 
C          C       0.99992   0.96065   0.72730 
C          C       0.96065   0.96073   0.22730 
C          C       0.03927   0.99992   0.22730 
C          C       0.00008   0.03935   0.22730 
C          C       0.03987   0.00014   0.73458 
C          C       0.99986   0.03973   0.73458 
C          C       0.96027   0.96013   0.73458 
C          C       0.96013   0.99986   0.23458 
C          C       0.00014   0.96027   0.23458 
C          C       0.03973   0.03987   0.23458 
N          N       0.08160   0.00953   0.75362 
N          N       0.99047   0.07207   0.75362 
N          N       0.92793   0.91840   0.75362 
N          N       0.91840   0.99047   0.25362 
N          N       0.00953   0.92793   0.25362 
N          N       0.07207   0.08160   0.25362 
C          C       0.09889   0.98201   0.79029 
C          C       0.01799   0.11688   0.79029 
C          C       0.88312   0.90111   0.79029 
C          C       0.90111   0.01799   0.29029 
C          C       0.98201   0.88312   0.29029 
C          C       0.11688   0.09889   0.29029 
C          C       0.12153   0.97424   0.65336 
C          C       0.02576   0.14729   0.65336 
C          C       0.85271   0.87847   0.65336 
C          C       0.87847   0.02576   0.15336 
C          C       0.97424   0.85271   0.15336 
C          C       0.14729   0.12153   0.15336 
H          H       0.08747   0.12971   0.63871 
H          H       0.87029   0.95776   0.63871 
H          H       0.04224   0.91253   0.63871 
H          H       0.91253   0.87029   0.13871 
H          H       0.12971   0.04224   0.13871 
H          H       0.95776   0.08747   0.13871 
H          H       0.07457   0.95223   0.84169 
H          H       0.04777   0.12234   0.84169 
H          H       0.87766   0.92543   0.84169 
H          H       0.92543   0.04777   0.34169 
H          H       0.95223   0.87766   0.34169 
H          H       0.12234   0.07457   0.34169 
H          H       0.12279   0.99656   0.88005 
H          H       0.00344   0.12623   0.88005 
H          H       0.87377   0.87721   0.88005 
H          H       0.87721   0.00344   0.38005 
H          H       0.99656   0.87377   0.38005 
H          H       0.12623   0.12279   0.38005 
H          H       0.12384   0.94551   0.67342 
H          H       0.05449   0.17833   0.67342 
H          H       0.82167   0.87616   0.67342 
H          H       0.87616   0.05449   0.17342 
H          H       0.94551   0.82167   0.17342 
H          H       0.17833   0.12384   0.17342 
H          H       0.15394   0.00117   0.63729 
H          H       0.99883   0.15277   0.63729 
H          H       0.84723   0.84606   0.63729 
H          H       0.84606   0.99883   0.13729 
H          H       0.00117   0.84723   0.13729 
H          H       0.15277   0.15394   0.13729 
H          H       0.10379   0.97021   0.54812 
H          H       0.02979   0.13358   0.54812 
H          H       0.86642   0.89621   0.54812 
H          H       0.89621   0.02979   0.04812 
H          H       0.97021   0.86642   0.04812 
H          H       0.13358   0.10379   0.04812 
C          C       0.30557   0.12285   0.75347 
C          C       0.87715   0.18272   0.75347 
C          C       0.81728   0.69443   0.75347 
C          C       0.69443   0.87715   0.25347 
C          C       0.12285   0.81728   0.25347 
C          C       0.18272   0.30557   0.25347 
C          C       0.35024   0.13940   0.75677 
C          C       0.86060   0.21084   0.75677 
C          C       0.78916   0.64976   0.75677 
C          C       0.64976   0.86060   0.25677 
C          C       0.13940   0.78916   0.25677 
C          C       0.21084   0.35024   0.25677 
C          C       0.37884   0.18423   0.76173 
C          C       0.81577   0.19461   0.76173 
C          C       0.80539   0.62116   0.76173 
C          C       0.62116   0.81577   0.26173 
C          C       0.18423   0.80539   0.26173 
C          C       0.19461   0.37884   0.26173 
C          C       0.36158   0.21184   0.76592 
C          C       0.78816   0.14974   0.76592 
C          C       0.85026   0.63842   0.76592 
C          C       0.63842   0.78816   0.26592 
C          C       0.21184   0.85026   0.26592 
C          C       0.14974   0.36158   0.26592 
C          C       0.31691   0.19530   0.76211 
C          C       0.80470   0.12161   0.76211 
C          C       0.87839   0.68309   0.76211 
C          C       0.68309   0.80470   0.26211 
C          C       0.19530   0.87839   0.26211 
C          C       0.12161   0.31691   0.26211 
N          N       0.42224   0.20316   0.76180 
N          N       0.79684   0.21908   0.76180 
N          N       0.78092   0.57776   0.76180 
N          N       0.57776   0.79684   0.26180 
N          N       0.20316   0.78092   0.26180 
N          N       0.21908   0.42224   0.26180 
C          C       0.44839   0.18649   0.74416 
C          C       0.81351   0.26190   0.74416 
C          C       0.73810   0.55161   0.74416 
C          C       0.55161   0.81351   0.24416 
C          C       0.18649   0.73810   0.24416 
C          C       0.26190   0.44839   0.24416 
C          C       0.49347   0.21250   0.74543 
C          C       0.78750   0.28097   0.74543 
C          C       0.71903   0.50653   0.74543 
C          C       0.50653   0.78750   0.24543 
C          C       0.21250   0.71903   0.24543 
C          C       0.28097   0.49347   0.24543 
C          C       0.51926   0.19465   0.70303 
C          C       0.80535   0.32461   0.70303 
C          C       0.67539   0.48074   0.70303 
C          C       0.48074   0.80535   0.20303 
C          C       0.19465   0.67539   0.20303 
C          C       0.32461   0.51926   0.20303 
C          C       0.56433   0.21973   0.70343 
C          C       0.78027   0.34460   0.70343 
C          C       0.65540   0.43567   0.70343 
C          C       0.43567   0.78027   0.20343 
C          C       0.21973   0.65540   0.20343 
C          C       0.34460   0.56433   0.20343 
C          C       0.58441   0.26286   0.75062 
C          C       0.73714   0.32155   0.75062 
C          C       0.67845   0.41559   0.75062 
C          C       0.41559   0.73714   0.25062 
C          C       0.26286   0.67845   0.25062 
C          C       0.32155   0.58441   0.25062 
C          C       0.55962   0.28185   0.78118 
C          C       0.71815   0.27777   0.78118 
C          C       0.72223   0.44038   0.78118 
C          C       0.44038   0.71815   0.28118 
C          C       0.28185   0.72223   0.28118 
C          C       0.27777   0.55962   0.28118 
C          C       0.51433   0.25662   0.78498 
C          C       0.74338   0.25771   0.78498 
C          C       0.74229   0.48567   0.78498 
C          C       0.48567   0.74338   0.28498 
C          C       0.25662   0.74229   0.28498 
C          C       0.25771   0.51433   0.28498 
N          N       0.58579   0.32453   0.80417 
N          N       0.67547   0.26126   0.80417 
N          N       0.73874   0.41421   0.80417 
N          N       0.41421   0.67547   0.30417 
N          N       0.32453   0.73874   0.30417 
N          N       0.26126   0.58579   0.30417 
C          C       0.62713   0.33356   0.78020 
C          C       0.66644   0.29357   0.78020 
C          C       0.70643   0.37287   0.78020 
C          C       0.37287   0.66644   0.28020 
C          C       0.33356   0.70643   0.28020 
C          C       0.29357   0.62713   0.28020 
C          C       0.62736   0.29450   0.77072 
C          C       0.70550   0.33286   0.77072 
C          C       0.66714   0.37264   0.77072 
C          C       0.37264   0.70550   0.27072 
C          C       0.29450   0.66714   0.27072 
C          C       0.33286   0.62736   0.27072 
C          C       0.57056   0.35254   0.85805 
C          C       0.64746   0.21802   0.85805 
C          C       0.78198   0.42944   0.85805 
C          C       0.42944   0.64746   0.35805 
C          C       0.35254   0.78198   0.35805 
C          C       0.21802   0.57056   0.35805 
C          C       0.54381   0.36153   0.74014 
C          C       0.63847   0.18228   0.74014 
C          C       0.81772   0.45619   0.74014 
C          C       0.45619   0.63847   0.24014 
C          C       0.36153   0.81772   0.24014 
C          C       0.18228   0.54381   0.24014 
H          H       0.23237   0.18114   0.72324 
H          H       0.81886   0.05123   0.72324 
H          H       0.94877   0.76763   0.72324 
H          H       0.76763   0.81886   0.22324 
H          H       0.18114   0.94877   0.22324 
H          H       0.05123   0.23237   0.22324 
H          H       0.28562   0.09026   0.74940 
H          H       0.90974   0.19536   0.74940 
H          H       0.80464   0.71438   0.74940 
H          H       0.71438   0.90974   0.24940 
H          H       0.09026   0.80464   0.24940 
H          H       0.19536   0.28562   0.24940 
H          H       0.36142   0.11831   0.75538 
H          H       0.88169   0.24311   0.75538 
H          H       0.75689   0.63858   0.75538 
H          H       0.63858   0.88169   0.25538 
H          H       0.11831   0.75689   0.25538 
H          H       0.24311   0.36142   0.25538 
H          H       0.38152   0.24441   0.77093 
H          H       0.75559   0.13711   0.77093 
H          H       0.86289   0.61848   0.77093 
H          H       0.61848   0.75559   0.27093 
H          H       0.24441   0.86289   0.27093 
H          H       0.13711   0.38152   0.27093 
H          H       0.30570   0.21636   0.76484 
H          H       0.78364   0.08934   0.76484 
H          H       0.91066   0.69430   0.76484 
H          H       0.69430   0.78364   0.26484 
H          H       0.21636   0.91066   0.26484 
H          H       0.08934   0.30570   0.26484 
H          H       0.43517   0.15421   0.72658 
H          H       0.84579   0.28096   0.72658 
H          H       0.71904   0.56483   0.72658 
H          H       0.56483   0.84579   0.22658 
H          H       0.15421   0.71904   0.22658 
H          H       0.28096   0.43517   0.22658 
H          H       0.50547   0.16319   0.67014 
H          H       0.83681   0.34228   0.67014 
H          H       0.65772   0.49453   0.67014 
H          H       0.49453   0.83681   0.17014 
H          H       0.16319   0.65772   0.17014 
H          H       0.34228   0.50547   0.17014 
H          H       0.58172   0.20654   0.66579 
H          H       0.79346   0.37518   0.66579 
H          H       0.62482   0.41828   0.66579 
H          H       0.41828   0.79346   0.16579 
H          H       0.20654   0.62482   0.16579 
H          H       0.37518   0.58172   0.16579 
H          H       0.49659   0.27030   0.81607 
H          H       0.72970   0.22629   0.81607 
H          H       0.77371   0.50341   0.81607 
H          H       0.50341   0.72970   0.31607 
H          H       0.27030   0.77371   0.31607 
H          H       0.22629   0.49659   0.31607 
H          H       0.59722   0.38270   0.89885 
H          H       0.61730   0.21452   0.89885 
H          H       0.78548   0.40278   0.89885 
H          H       0.40278   0.61730   0.39885 
H          H       0.38270   0.78548   0.39885 
H          H       0.21452   0.59722   0.39885 
H          H       0.55069   0.33813   0.95924 
H          H       0.66187   0.21256   0.95924 
H          H       0.78744   0.44931   0.95924 
H          H       0.44931   0.66187   0.45924 
H          H       0.33813   0.78744   0.45924 
H          H       0.21256   0.55069   0.45924 
H          H       0.50996   0.33711   0.74517 
H          H       0.66289   0.17285   0.74517 
H          H       0.82715   0.49004   0.74517 
H          H       0.49004   0.66289   0.24517 
H          H       0.33711   0.82715   0.24517 
H          H       0.17285   0.50996   0.24517 
H          H       0.55519   0.36214   0.62433 
H          H       0.63786   0.19305   0.62433 
H          H       0.80695   0.44481   0.62433 
H          H       0.44481   0.63786   0.12433 
H          H       0.36214   0.80695   0.12433 
H          H       0.19305   0.55519   0.12433 
H          H       0.54626   0.39245   0.76443 
H          H       0.60755   0.15381   0.76443 
H          H       0.84619   0.45374   0.76443 
H          H       0.45374   0.60755   0.26443 
H          H       0.39245   0.84619   0.26443 
H          H       0.15381   0.54626   0.26443 
