data_crystal
 
_cell_length_a    28.98470
_cell_length_b    28.98470
_cell_length_c    6.86520
_cell_angle_alpha 90.00000
_cell_angle_beta  90.00000
_cell_angle_gamma 120.00000
 
_space_group_name_Hall 'P 1'
_space_group_name_H-M_alt  'P 1'
 
loop_
_symmetry_equiv_pos_as_xyz
 'x,y,z' 
 
loop_
_atom_site_label
_atom_site_type_symbol
_atom_site_fract_x
_atom_site_fract_y
_atom_site_fract_z
C          C       0.22443   0.62394   0.25000 
C          C       0.37606   0.60049   0.25000 
C          C       0.39951   0.77557   0.25000 
C          C       0.77557   0.37606   0.25000 
C          C       0.62394   0.39951   0.25000 
C          C       0.60049   0.22443   0.25000 
C          C       0.20233   0.65580   0.25000 
C          C       0.34420   0.54653   0.25000 
C          C       0.45347   0.79767   0.25000 
C          C       0.79767   0.34420   0.25000 
C          C       0.65580   0.45347   0.25000 
C          C       0.54653   0.20233   0.25000 
C          C       0.14872   0.63447   0.25000 
C          C       0.36553   0.51425   0.25000 
C          C       0.48575   0.85128   0.25000 
C          C       0.85128   0.36553   0.25000 
C          C       0.63447   0.48575   0.25000 
C          C       0.51425   0.14872   0.25000 
C          C       0.11575   0.58082   0.25000 
C          C       0.41918   0.53493   0.25000 
C          C       0.46507   0.88425   0.25000 
C          C       0.88425   0.41918   0.25000 
C          C       0.58082   0.46507   0.25000 
C          C       0.53493   0.11575   0.25000 
C          C       0.13758   0.54876   0.25000 
C          C       0.45124   0.58882   0.25000 
C          C       0.41118   0.86242   0.25000 
C          C       0.86242   0.45124   0.25000 
C          C       0.54876   0.41118   0.25000 
C          C       0.58882   0.13758   0.25000 
C          C       0.19131   0.57009   0.25000 
C          C       0.42991   0.62122   0.25000 
C          C       0.37878   0.80869   0.25000 
C          C       0.80869   0.42991   0.25000 
C          C       0.57009   0.37878   0.25000 
C          C       0.62122   0.19131   0.25000 
C          C       0.28155   0.64684   0.25000 
C          C       0.35316   0.63471   0.25000 
C          C       0.36529   0.71845   0.25000 
C          C       0.71845   0.35316   0.25000 
C          C       0.64684   0.36529   0.25000 
C          C       0.63471   0.28155   0.25000 
C          C       0.05910   0.55967   0.25000 
C          C       0.44033   0.49943   0.25000 
C          C       0.50057   0.94090   0.25000 
C          C       0.94090   0.44033   0.25000 
C          C       0.55967   0.50057   0.25000 
C          C       0.49943   0.05910   0.25000 
N          N       0.02673   0.51043   0.25000 
N          N       0.48957   0.51630   0.25000 
N          N       0.48370   0.97327   0.25000 
N          N       0.97327   0.48957   0.25000 
N          N       0.51043   0.48370   0.25000 
N          N       0.51630   0.02673   0.25000 
N          N       0.31311   0.69895   0.25000 
N          N       0.30105   0.61416   0.25000 
N          N       0.38584   0.68689   0.25000 
N          N       0.68689   0.30105   0.25000 
N          N       0.69895   0.38584   0.25000 
N          N       0.61416   0.31311   0.25000 
H          H       0.22644   0.69737   0.25000 
H          H       0.30263   0.52907   0.25000 
H          H       0.47093   0.77356   0.25000 
H          H       0.77356   0.30263   0.25000 
H          H       0.69737   0.47093   0.25000 
H          H       0.52907   0.22644   0.25000 
H          H       0.13294   0.66191   0.25000 
H          H       0.33809   0.47103   0.25000 
H          H       0.52897   0.86706   0.25000 
H          H       0.86706   0.33809   0.25000 
H          H       0.66191   0.52897   0.25000 
H          H       0.47103   0.13294   0.25000 
H          H       0.11321   0.50722   0.25000 
H          H       0.49278   0.60599   0.25000 
H          H       0.39401   0.88679   0.25000 
H          H       0.88679   0.49278   0.25000 
H          H       0.50722   0.39401   0.25000 
H          H       0.60599   0.11321   0.25000 
H          H       0.20684   0.54430   0.25000 
H          H       0.45570   0.66254   0.25000 
H          H       0.33746   0.79316   0.25000 
H          H       0.79316   0.45570   0.25000 
H          H       0.54430   0.33746   0.25000 
H          H       0.66254   0.20684   0.25000 
H          H       0.04446   0.58627   0.25000 
H          H       0.41373   0.45819   0.25000 
H          H       0.54181   0.95554   0.25000 
H          H       0.95554   0.41373   0.25000 
H          H       0.58627   0.54181   0.25000 
H          H       0.45819   0.04446   0.25000 
C          C       0.22443   0.62394   0.75000 
C          C       0.37606   0.60049   0.75000 
C          C       0.39951   0.77557   0.75000 
C          C       0.77557   0.37606   0.75000 
C          C       0.62394   0.39951   0.75000 
C          C       0.60049   0.22443   0.75000 
C          C       0.20233   0.65580   0.75000 
C          C       0.34420   0.54653   0.75000 
C          C       0.45347   0.79767   0.75000 
C          C       0.79767   0.34420   0.75000 
C          C       0.65580   0.45347   0.75000 
C          C       0.54653   0.20233   0.75000 
C          C       0.14872   0.63447   0.75000 
C          C       0.36553   0.51425   0.75000 
C          C       0.48575   0.85128   0.75000 
C          C       0.85128   0.36553   0.75000 
C          C       0.63447   0.48575   0.75000 
C          C       0.51425   0.14872   0.75000 
C          C       0.11575   0.58082   0.75000 
C          C       0.41918   0.53493   0.75000 
C          C       0.46507   0.88425   0.75000 
C          C       0.88425   0.41918   0.75000 
C          C       0.58082   0.46507   0.75000 
C          C       0.53493   0.11575   0.75000 
C          C       0.13758   0.54876   0.75000 
C          C       0.45124   0.58882   0.75000 
C          C       0.41118   0.86242   0.75000 
C          C       0.86242   0.45124   0.75000 
C          C       0.54876   0.41118   0.75000 
C          C       0.58882   0.13758   0.75000 
C          C       0.19131   0.57009   0.75000 
C          C       0.42991   0.62122   0.75000 
C          C       0.37878   0.80869   0.75000 
C          C       0.80869   0.42991   0.75000 
C          C       0.57009   0.37878   0.75000 
C          C       0.62122   0.19131   0.75000 
C          C       0.28155   0.64684   0.75000 
C          C       0.35316   0.63471   0.75000 
C          C       0.36529   0.71845   0.75000 
C          C       0.71845   0.35316   0.75000 
C          C       0.64684   0.36529   0.75000 
C          C       0.63471   0.28155   0.75000 
C          C       0.05910   0.55967   0.75000 
C          C       0.44033   0.49943   0.75000 
C          C       0.50057   0.94090   0.75000 
C          C       0.94090   0.44033   0.75000 
C          C       0.55967   0.50057   0.75000 
C          C       0.49943   0.05910   0.75000 
N          N       0.02673   0.51043   0.75000 
N          N       0.48957   0.51630   0.75000 
N          N       0.48370   0.97327   0.75000 
N          N       0.97327   0.48957   0.75000 
N          N       0.51043   0.48370   0.75000 
N          N       0.51630   0.02673   0.75000 
N          N       0.31311   0.69895   0.75000 
N          N       0.30105   0.61416   0.75000 
N          N       0.38584   0.68689   0.75000 
N          N       0.68689   0.30105   0.75000 
N          N       0.69895   0.38584   0.75000 
N          N       0.61416   0.31311   0.75000 
H          H       0.22644   0.69737   0.75000 
H          H       0.30263   0.52907   0.75000 
H          H       0.47093   0.77356   0.75000 
H          H       0.77356   0.30263   0.75000 
H          H       0.69737   0.47093   0.75000 
H          H       0.52907   0.22644   0.75000 
H          H       0.13294   0.66191   0.75000 
H          H       0.33809   0.47103   0.75000 
H          H       0.52897   0.86706   0.75000 
H          H       0.86706   0.33809   0.75000 
H          H       0.66191   0.52897   0.75000 
H          H       0.47103   0.13294   0.75000 
H          H       0.11321   0.50722   0.75000 
H          H       0.49278   0.60599   0.75000 
H          H       0.39401   0.88679   0.75000 
H          H       0.88679   0.49278   0.75000 
H          H       0.50722   0.39401   0.75000 
H          H       0.60599   0.11321   0.75000 
H          H       0.20684   0.54430   0.75000 
H          H       0.45570   0.66254   0.75000 
H          H       0.33746   0.79316   0.75000 
H          H       0.79316   0.45570   0.75000 
H          H       0.54430   0.33746   0.75000 
H          H       0.66254   0.20684   0.75000 
H          H       0.04446   0.58627   0.75000 
H          H       0.41373   0.45819   0.75000 
H          H       0.54181   0.95554   0.75000 
H          H       0.95554   0.41373   0.75000 
H          H       0.58627   0.54181   0.75000 
H          H       0.45819   0.04446   0.75000 
