data_crystal

_cell_length_a    28.67990
_cell_length_b    28.67990
_cell_length_c    6.91800
_cell_angle_alpha 90.00000
_cell_angle_beta  90.00000
_cell_angle_gamma 120.00000

_space_group_name_Hall 'P 1'
_space_group_name_H-M_alt  'P 1'

loop_
_symmetry_equiv_pos_as_xyz
'x,y,z' 

loop_
_atom_site_label
_atom_site_type_symbol
_atom_site_fract_x
_atom_site_fract_y
_atom_site_fract_z
C          C       0.77664   0.37933   0.25506 
C          C       0.22336   0.62067   0.24494 
C          C       0.79936   0.35029   0.28840 
C          C       0.20064   0.64971   0.21160 
C          C       0.85181   0.37175   0.29204 
C          C       0.14819   0.62825   0.20796 
C          C       0.88431   0.42328   0.26253 
C          C       0.11569   0.57672   0.23746 
C          C       0.86210   0.45256   0.22721 
C          C       0.13790   0.54744   0.27279 
C          C       0.80955   0.43110   0.22230 
C          C       0.19045   0.56890   0.27770 
C          C       0.71959   0.35540   0.25281 
C          C       0.28041   0.64460   0.24719 
C          C       0.94036   0.44418   0.26889 
C          C       0.05964   0.55582   0.23111 
N          N       0.97396   0.49140   0.24602 
N          N       0.02604   0.50860   0.25398 
N          N       0.68919   0.30445   0.24809 
N          N       0.31081   0.69555   0.25190 
H          H       0.77649   0.31063   0.31349 
H          H       0.22351   0.68937   0.18651 
H          H       0.88534   0.49215   0.20138 
H          H       0.11466   0.50785   0.29862 
H          H       0.79536   0.45573   0.18887 
H          H       0.20464   0.54427   0.31113 
H          H       0.95321   0.41795   0.29485 
H          H       0.04679   0.58205   0.20514 
H          H       0.86713   0.34765   0.31926 
H          H       0.13287   0.65235   0.18073 
C          C       0.61867   0.39439   0.23665 
C          C       0.38133   0.60561   0.26335 
C          C       0.64608   0.44553   0.18684 
C          C       0.35392   0.55447   0.31316 
C          C       0.62421   0.47585   0.18416 
C          C       0.37579   0.52415   0.31584 
C          C       0.57349   0.45703   0.22703 
C          C       0.42651   0.54297   0.27297 
C          C       0.54503   0.40569   0.27180 
C          C       0.45497   0.59431   0.22819 
C          C       0.56726   0.37495   0.27634 
C          C       0.43274   0.62505   0.22366 
C          C       0.64382   0.36241   0.24518 
C          C       0.35618   0.63759   0.25482 
C          C       0.55367   0.49311   0.22121 
C          C       0.44633   0.50689   0.27879 
N          N       0.50746   0.48167   0.25443 
N          N       0.49254   0.51833   0.24557 
C          C       0.69635   0.38475   0.25755 
C          C       0.30365   0.61525   0.24244 
H          H       0.68476   0.46289   0.14467 
H          H       0.31524   0.53711   0.35533 
H          H       0.50580   0.38935   0.30507 
H          H       0.49420   0.61065   0.19492 
H          H       0.54421   0.33598   0.31374 
H          H       0.45579   0.66402   0.18626 
H          H       0.58031   0.53158   0.18623 
H          H       0.41969   0.46842   0.31376 
H          H       0.64746   0.51475   0.14563 
H          H       0.35254   0.48525   0.35437 
H          H       0.48228   0.13391   0.23723 
H          H       0.51772   0.86609   0.26277 
C          C       0.60546   0.22477   0.24339 
C          C       0.39454   0.77523   0.25661 
C          C       0.55304   0.20170   0.23962 
C          C       0.44696   0.79830   0.26038 
C          C       0.52225   0.14929   0.24019 
C          C       0.47775   0.85071   0.25981 
C          C       0.54195   0.11690   0.24461 
C          C       0.45805   0.88310   0.25539 
C          C       0.59442   0.13954   0.24821 
C          C       0.40558   0.86046   0.25179 
C          C       0.62554   0.19244   0.24762 
C          C       0.37446   0.80756   0.25238 
C          C       0.63800   0.28171   0.24430 
C          C       0.36200   0.71829   0.25570 
C          C       0.50581   0.06072   0.24528 
C          C       0.49419   0.93928   0.25472 
N          N       0.51826   0.02592   0.24979 
N          N       0.48174   0.97408   0.25021 
N          N       0.61641   0.31127   0.24106 
N          N       0.38359   0.68873   0.25894 
H          H       0.53539   0.22425   0.23638 
H          H       0.46461   0.77575   0.26361 
H          H       0.61151   0.11647   0.25170 
H          H       0.38849   0.88353   0.24830 
H          H       0.66552   0.20803   0.25084 
H          H       0.33448   0.79197   0.24915 
H          H       0.46646   0.04883   0.24183 
H          H       0.53354   0.95117   0.25816 
H          H       0.71876   0.42434   0.27723 
H          H       0.28124   0.57566   0.22277 
C          C       0.77664   0.37933   0.75506 
C          C       0.22336   0.62067   0.74494 
C          C       0.79936   0.35029   0.78839 
C          C       0.20064   0.64971   0.71160 
C          C       0.85181   0.37175   0.79204 
C          C       0.14819   0.62825   0.70796 
C          C       0.88431   0.42328   0.76253 
C          C       0.11569   0.57672   0.73746 
C          C       0.86210   0.45256   0.72721 
C          C       0.13790   0.54744   0.77279 
C          C       0.80955   0.43110   0.72230 
C          C       0.19045   0.56890   0.77770 
C          C       0.71959   0.35540   0.75280 
C          C       0.28041   0.64460   0.74719 
C          C       0.94036   0.44418   0.76889 
C          C       0.05964   0.55582   0.73111 
N          N       0.97396   0.49140   0.74602 
N          N       0.02604   0.50860   0.75398 
N          N       0.68919   0.30445   0.74809 
N          N       0.31081   0.69555   0.75190 
H          H       0.77649   0.31063   0.81349 
H          H       0.22351   0.68937   0.68651 
H          H       0.88534   0.49215   0.70138 
H          H       0.11466   0.50785   0.79862 
H          H       0.79536   0.45573   0.68887 
H          H       0.20464   0.54427   0.81113 
H          H       0.95321   0.41795   0.79485 
H          H       0.04679   0.58205   0.70514 
H          H       0.86713   0.34765   0.81926 
H          H       0.13287   0.65235   0.68073 
C          C       0.61867   0.39439   0.73665 
C          C       0.38133   0.60561   0.76335 
C          C       0.64608   0.44553   0.68684 
C          C       0.35392   0.55447   0.81316 
C          C       0.62421   0.47585   0.68416 
C          C       0.37579   0.52415   0.81584 
C          C       0.57349   0.45703   0.72703 
C          C       0.42651   0.54297   0.77296 
C          C       0.54503   0.40569   0.77180 
C          C       0.45497   0.59431   0.72819 
C          C       0.56726   0.37495   0.77634 
C          C       0.43274   0.62505   0.72366 
C          C       0.64382   0.36241   0.74518 
C          C       0.35618   0.63759   0.75482 
C          C       0.55367   0.49311   0.72121 
C          C       0.44633   0.50689   0.77878 
N          N       0.50746   0.48167   0.75443 
N          N       0.49254   0.51833   0.74557 
C          C       0.69635   0.38475   0.75755 
C          C       0.30365   0.61525   0.74244 
H          H       0.68476   0.46289   0.64467 
H          H       0.31524   0.53711   0.85532 
H          H       0.50580   0.38935   0.80507 
H          H       0.49420   0.61065   0.69492 
H          H       0.54421   0.33598   0.81374 
H          H       0.45579   0.66402   0.68626 
H          H       0.58031   0.53158   0.68623 
H          H       0.41969   0.46842   0.81376 
H          H       0.64746   0.51475   0.64563 
H          H       0.35254   0.48525   0.85437 
H          H       0.48228   0.13391   0.73723 
H          H       0.51772   0.86609   0.76276 
C          C       0.60546   0.22477   0.74339 
C          C       0.39454   0.77523   0.75661 
C          C       0.55304   0.20170   0.73962 
C          C       0.44696   0.79830   0.76037 
C          C       0.52225   0.14929   0.74019 
C          C       0.47775   0.85071   0.75980 
C          C       0.54195   0.11690   0.74461 
C          C       0.45805   0.88310   0.75539 
C          C       0.59442   0.13954   0.74820 
C          C       0.40558   0.86046   0.75179 
C          C       0.62554   0.19244   0.74762 
C          C       0.37446   0.80756   0.75238 
C          C       0.63800   0.28171   0.74430 
C          C       0.36200   0.71829   0.75570 
C          C       0.50581   0.06072   0.74528 
C          C       0.49419   0.93928   0.75471 
N          N       0.51826   0.02592   0.74979 
N          N       0.48174   0.97408   0.75021 
N          N       0.61641   0.31127   0.74106 
N          N       0.38359   0.68873   0.75893 
H          H       0.53539   0.22425   0.73638 
H          H       0.46461   0.77575   0.76362 
H          H       0.61151   0.11647   0.75169 
H          H       0.38849   0.88353   0.74830 
H          H       0.66552   0.20803   0.75084 
H          H       0.33448   0.79197   0.74916 
H          H       0.46646   0.04883   0.74183 
H          H       0.53354   0.95117   0.75816 
H          H       0.71876   0.42434   0.77723 
H          H       0.28124   0.57566   0.72277 
