data_crystal

_cell_length_a    28.48250
_cell_length_b    28.48250
_cell_length_c    6.80000
_cell_angle_alpha 90.00000
_cell_angle_beta  90.00000
_cell_angle_gamma 120.00000

_space_group_name_Hall 'P 1'
_space_group_name_H-M_alt  'P 1'

loop_
_symmetry_equiv_pos_as_xyz
'x,y,z' 

loop_
_atom_site_label
_atom_site_type_symbol
_atom_site_fract_x
_atom_site_fract_y
_atom_site_fract_z
C          C       0.22189   0.61604   0.20778 
C          C       0.77811   0.38396   0.29222 
C          C       0.19866   0.64281   0.14235 
C          C       0.80134   0.35719   0.35765 
C          C       0.14666   0.62164   0.14190 
C          C       0.85334   0.37836   0.35810 
C          C       0.11482   0.57219   0.20100 
C          C       0.88518   0.42781   0.29900 
C          C       0.13705   0.54409   0.25893 
C          C       0.86295   0.45591   0.24107 
C          C       0.18968   0.56572   0.26331 
C          C       0.81032   0.43428   0.23669 
C          C       0.27873   0.64154   0.22611 
C          C       0.72127   0.35846   0.27389 
C          C       0.05941   0.55271   0.19938 
C          C       0.94059   0.44729   0.30062 
N          N       0.02576   0.50772   0.25206 
N          N       0.97424   0.49228   0.24794 
C          C       0.30757   0.69361   0.24663 
C          C       0.69243   0.30639   0.25337 
H          H       0.22020   0.68034   0.08687 
H          H       0.77980   0.31966   0.41313 
H          H       0.11390   0.50581   0.30539 
H          H       0.88610   0.49419   0.19461 
H          H       0.20485   0.54323   0.31693 
H          H       0.79515   0.45677   0.18307 
H          H       0.04692   0.57805   0.15188 
H          H       0.95308   0.42195   0.34813 
H          H       0.28898   0.71494   0.24269 
H          H       0.71102   0.28506   0.25731 
H          H       0.13116   0.64427   0.09247 
H          H       0.86884   0.35573   0.40753 
C          C       0.38322   0.60797   0.26839 
C          C       0.61678   0.39203   0.23161 
C          C       0.35596   0.55710   0.32228 
C          C       0.64404   0.44290   0.17772 
C          C       0.37758   0.52659   0.32533 
C          C       0.62242   0.47341   0.17467 
C          C       0.42803   0.54491   0.27891 
C          C       0.57197   0.45509   0.22109 
C          C       0.45652   0.59615   0.23118 
C          C       0.54348   0.40385   0.26882 
C          C       0.43447   0.62713   0.22639 
C          C       0.56553   0.37287   0.27361 
C          C       0.35728   0.63919   0.25538 
C          C       0.64272   0.36081   0.24462 
C          C       0.44731   0.50831   0.28481 
C          C       0.55269   0.49169   0.21519 
N          N       0.49294   0.51865   0.24543 
N          N       0.50706   0.48135   0.25457 
C          C       0.30464   0.61487   0.22687 
C          C       0.69536   0.38513   0.27313 
H          H       0.31745   0.54018   0.36705 
H          H       0.68255   0.45982   0.13295 
H          H       0.49559   0.61217   0.19540 
H          H       0.50441   0.38783   0.30460 
H          H       0.45737   0.66589   0.18575 
H          H       0.54263   0.33411   0.31425 
H          H       0.42060   0.47024   0.32495 
H          H       0.57940   0.52976   0.17505 
H          H       0.28377   0.57534   0.19925 
H          H       0.71623   0.42466   0.30075 
H          H       0.35430   0.48789   0.36667 
H          H       0.64570   0.51211   0.13333 
H          H       0.49862   0.88321   0.19236 
H          H       0.50138   0.11679   0.30764 
C          C       0.38788   0.77571   0.29447 
C          C       0.61212   0.22429   0.20553 
C          C       0.43822   0.80728   0.23797 
C          C       0.56178   0.19272   0.26203 
C          C       0.46046   0.86035   0.24069 
C          C       0.53954   0.13965   0.25931 
C          C       0.43280   0.88324   0.29946 
C          C       0.56720   0.11676   0.20054 
C          C       0.38383   0.85187   0.36290 
C          C       0.61617   0.14813   0.13710 
C          C       0.36232   0.79990   0.36436 
C          C       0.63768   0.20010   0.13564 
C          C       0.35993   0.71874   0.27118 
C          C       0.64007   0.28126   0.22882 
C          C       0.45085   0.93853   0.29979 
C          C       0.54915   0.06147   0.20021 
N          N       0.49452   0.97483   0.24595 
N          N       0.50548   0.02517   0.25405 
N          N       0.38321   0.69058   0.27405 
N          N       0.61679   0.30942   0.22595 
H          H       0.45984   0.79100   0.18510 
H          H       0.54016   0.20900   0.31490 
H          H       0.36176   0.86783   0.41439 
H          H       0.63824   0.13217   0.08561 
H          H       0.32525   0.77897   0.42489 
H          H       0.67475   0.22103   0.07511 
H          H       0.42320   0.95390   0.35539 
H          H       0.57680   0.04610   0.14461 
C          C       0.22189   0.61604   0.70778 
C          C       0.77811   0.38396   0.79222 
C          C       0.19866   0.64281   0.64235 
C          C       0.80134   0.35719   0.85765 
C          C       0.14666   0.62164   0.64190 
C          C       0.85334   0.37836   0.85810 
C          C       0.11482   0.57219   0.70100 
C          C       0.88518   0.42781   0.79900 
C          C       0.13705   0.54409   0.75893 
C          C       0.86295   0.45591   0.74107 
C          C       0.18968   0.56572   0.76331 
C          C       0.81032   0.43428   0.73669 
C          C       0.27873   0.64154   0.72611 
C          C       0.72127   0.35846   0.77389 
C          C       0.05941   0.55271   0.69938 
C          C       0.94059   0.44729   0.80062 
N          N       0.02576   0.50772   0.75206 
N          N       0.97424   0.49228   0.74794 
C          C       0.30757   0.69361   0.74663 
C          C       0.69243   0.30639   0.75336 
H          H       0.22020   0.68034   0.58687 
H          H       0.77980   0.31966   0.91313 
H          H       0.11390   0.50581   0.80539 
H          H       0.88610   0.49419   0.69461 
H          H       0.20485   0.54323   0.81693 
H          H       0.79515   0.45677   0.68307 
H          H       0.04692   0.57805   0.65188 
H          H       0.95308   0.42195   0.84813 
H          H       0.28898   0.71494   0.74269 
H          H       0.71102   0.28506   0.75731 
H          H       0.13116   0.64427   0.59247 
H          H       0.86884   0.35573   0.90753 
C          C       0.38322   0.60797   0.76840 
C          C       0.61678   0.39203   0.73161 
C          C       0.35596   0.55710   0.82229 
C          C       0.64404   0.44290   0.67772 
C          C       0.37758   0.52659   0.82534 
C          C       0.62242   0.47341   0.67467 
C          C       0.42803   0.54491   0.77891 
C          C       0.57197   0.45509   0.72110 
C          C       0.45652   0.59615   0.73118 
C          C       0.54348   0.40385   0.76882 
C          C       0.43447   0.62713   0.72639 
C          C       0.56553   0.37287   0.77361 
C          C       0.35728   0.63919   0.75538 
C          C       0.64272   0.36081   0.74462 
C          C       0.44731   0.50831   0.78481 
C          C       0.55269   0.49169   0.71519 
N          N       0.49294   0.51865   0.74543 
N          N       0.50706   0.48135   0.75457 
C          C       0.30464   0.61487   0.72688 
C          C       0.69536   0.38513   0.77313 
H          H       0.31745   0.54018   0.86705 
H          H       0.68255   0.45982   0.63295 
H          H       0.49559   0.61217   0.69541 
H          H       0.50441   0.38783   0.80459 
H          H       0.45737   0.66589   0.68575 
H          H       0.54263   0.33411   0.81425 
H          H       0.42060   0.47024   0.82495 
H          H       0.57940   0.52976   0.67505 
H          H       0.28377   0.57534   0.69925 
H          H       0.71623   0.42466   0.80075 
H          H       0.35430   0.48789   0.86668 
H          H       0.64570   0.51211   0.63333 
H          H       0.49862   0.88321   0.69236 
H          H       0.50138   0.11679   0.80764 
C          C       0.38788   0.77571   0.79448 
C          C       0.61212   0.22429   0.70553 
C          C       0.43822   0.80728   0.73797 
C          C       0.56178   0.19272   0.76203 
C          C       0.46046   0.86035   0.74069 
C          C       0.53954   0.13965   0.75931 
C          C       0.43280   0.88324   0.79946 
C          C       0.56720   0.11676   0.70054 
C          C       0.38383   0.85187   0.86289 
C          C       0.61617   0.14813   0.63711 
C          C       0.36232   0.79990   0.86437 
C          C       0.63768   0.20010   0.63564 
C          C       0.35993   0.71874   0.77118 
C          C       0.64007   0.28126   0.72882 
C          C       0.45085   0.93853   0.79979 
C          C       0.54915   0.06147   0.70021 
N          N       0.49452   0.97483   0.74595 
N          N       0.50548   0.02517   0.75405 
N          N       0.38321   0.69058   0.77406 
N          N       0.61679   0.30942   0.72595 
H          H       0.45984   0.79100   0.68510 
H          H       0.54016   0.20900   0.81489 
H          H       0.36176   0.86783   0.91438 
H          H       0.63824   0.13217   0.58561 
H          H       0.32525   0.77897   0.92489 
H          H       0.67475   0.22103   0.57511 
H          H       0.42320   0.95390   0.85539 
H          H       0.57680   0.04610   0.64462 
