data_nchem.NPN-2
_audit_creation_date              0000-00-00
_audit_creation_method            'LanYouShi'
_symmetry_space_group_name_H-M    'P1'
_cell_length_a                    13.4209995
_cell_length_b                    13.4209995
_cell_length_c                    8.5279999
_cell_angle_alpha                 90.0000000
_cell_angle_beta                  90.0000000
_cell_angle_gamma                 90.0000000
loop_
_atom_site_label
_atom_site_type_symbol
_atom_site_fract_x
_atom_site_fract_y
_atom_site_fract_z
_atom_site_U_iso_or_equiv
_atom_site_adp_type
_atom_site_occupancy
        C1          C  0.9346000  0.9114000  0.8720000    0.00000       Uiso       1.00
        C2          C  0.8881000  0.9477000  0.7352000    0.00000       Uiso       1.00
        H1          H  0.8896000  0.0168000  0.7113000    0.00000       Uiso       1.00
        C3          C  0.8392000  0.8802000  0.6342000    0.00000       Uiso       1.00
        H2          H  0.8081000  0.9032000  0.5409001    0.00000       Uiso       1.00
        C4          C  0.8373000  0.7823001  0.6721000    0.00000       Uiso       1.00
        C5          C  0.8773000  0.7451000  0.8084000    0.00000       Uiso       1.00
        H3          H  0.8715000  0.6766000  0.8353000    0.00000       Uiso       1.00
        C6          C  0.9264000  0.8119000  0.9042000    0.00000       Uiso       1.00
        H4          H  0.9562001  0.7874001  0.9976000    0.00000       Uiso       1.00
        N1          N  0.7813001  0.7118000  0.5777000    0.00000       Uiso       1.00
        O1          O  0.7326000  0.6462001  0.6429000    0.00000       Uiso       1.00
        C7          C  0.0654000  0.0886000  0.8720000    0.00000       Uiso       1.00
        C8          C  0.1119000  0.0523000  0.7352000    0.00000       Uiso       1.00
        H5          H  0.1104000  0.9832000  0.7113000    0.00000       Uiso       1.00
        C9          C  0.1608000  0.1198000  0.6342000    0.00000       Uiso       1.00
        H6          H  0.1919000  0.0968000  0.5409001    0.00000       Uiso       1.00
       C10          C  0.1627000  0.2177000  0.6721000    0.00000       Uiso       1.00
       C11          C  0.1227000  0.2549000  0.8084000    0.00000       Uiso       1.00
        H7          H  0.1285000  0.3234000  0.8353000    0.00000       Uiso       1.00
       C12          C  0.0736000  0.1881000  0.9042000    0.00000       Uiso       1.00
        H8          H  0.0438000  0.2126000  0.9976000    0.00000       Uiso       1.00
        N2          N  0.2187000  0.2882000  0.5777000    0.00000       Uiso       1.00
        O2          O  0.2674000  0.3538000  0.6429000    0.00000       Uiso       1.00
       C13          C  0.9114000  0.0654000  0.1280000    0.00000       Uiso       1.00
       C14          C  0.9477000  0.1119000  0.2648000    0.00000       Uiso       1.00
        H9          H  0.0168000  0.1104000  0.2887000    0.00000       Uiso       1.00
       C15          C  0.8802000  0.1608000  0.3658000    0.00000       Uiso       1.00
       H10          H  0.9032000  0.1919000  0.4591000    0.00000       Uiso       1.00
       C16          C  0.7823001  0.1627000  0.3279000    0.00000       Uiso       1.00
       C17          C  0.7451000  0.1227000  0.1916000    0.00000       Uiso       1.00
       H11          H  0.6766000  0.1285000  0.1647000    0.00000       Uiso       1.00
       C18          C  0.8119000  0.0736000  0.0958000    0.00000       Uiso       1.00
       H12          H  0.7874001  0.0438000  0.0024000    0.00000       Uiso       1.00
        N3          N  0.7118000  0.2187000  0.4223000    0.00000       Uiso       1.00
        O3          O  0.6462001  0.2674000  0.3571000    0.00000       Uiso       1.00
       C19          C  0.0886000  0.9346000  0.1280000    0.00000       Uiso       1.00
       C20          C  0.0523000  0.8881000  0.2648000    0.00000       Uiso       1.00
       H13          H  0.9832000  0.8896000  0.2887000    0.00000       Uiso       1.00
       C21          C  0.1198000  0.8392000  0.3658000    0.00000       Uiso       1.00
       H14          H  0.0968000  0.8081000  0.4591000    0.00000       Uiso       1.00
       C22          C  0.2177000  0.8373000  0.3279000    0.00000       Uiso       1.00
       C23          C  0.2549000  0.8773000  0.1916000    0.00000       Uiso       1.00
       H15          H  0.3234000  0.8715000  0.1647000    0.00000       Uiso       1.00
       C24          C  0.1881000  0.9264000  0.0958000    0.00000       Uiso       1.00
       H16          H  0.2126000  0.9562001  0.0024000    0.00000       Uiso       1.00
        N4          N  0.2882000  0.7813001  0.4223000    0.00000       Uiso       1.00
        O4          O  0.3538000  0.7326000  0.3571000    0.00000       Uiso       1.00
       C25          C  0.4346000  0.5886000  0.8720000    0.00000       Uiso       1.00
       C26          C  0.3881000  0.5523000  0.7352000    0.00000       Uiso       1.00
       H17          H  0.3896000  0.4832000  0.7113000    0.00000       Uiso       1.00
       C27          C  0.3392000  0.6198000  0.6342000    0.00000       Uiso       1.00
       H18          H  0.3081000  0.5968000  0.5409001    0.00000       Uiso       1.00
       C28          C  0.3373000  0.7177000  0.6721000    0.00000       Uiso       1.00
       C29          C  0.3773000  0.7549000  0.8084000    0.00000       Uiso       1.00
       H19          H  0.3715000  0.8234001  0.8353000    0.00000       Uiso       1.00
       C30          C  0.4264000  0.6881000  0.9042000    0.00000       Uiso       1.00
       H20          H  0.4562000  0.7126001  0.9976000    0.00000       Uiso       1.00
        N5          N  0.2813000  0.7882000  0.5777000    0.00000       Uiso       1.00
        O5          O  0.2326000  0.8538001  0.6429000    0.00000       Uiso       1.00
       C31          C  0.5654000  0.4114000  0.8720000    0.00000       Uiso       1.00
       C32          C  0.6119000  0.4477000  0.7352000    0.00000       Uiso       1.00
       H21          H  0.6104000  0.5168000  0.7113000    0.00000       Uiso       1.00
       C33          C  0.6608000  0.3802000  0.6342000    0.00000       Uiso       1.00
       H22          H  0.6919000  0.4032000  0.5409001    0.00000       Uiso       1.00
       C34          C  0.6627000  0.2823000  0.6721000    0.00000       Uiso       1.00
       C35          C  0.6227000  0.2451000  0.8084000    0.00000       Uiso       1.00
       H23          H  0.6285000  0.1766000  0.8353000    0.00000       Uiso       1.00
       C36          C  0.5736000  0.3119000  0.9042000    0.00000       Uiso       1.00
       H24          H  0.5438000  0.2874000  0.9976000    0.00000       Uiso       1.00
        N6          N  0.7187001  0.2118000  0.5777000    0.00000       Uiso       1.00
        O6          O  0.7674000  0.1462000  0.6429000    0.00000       Uiso       1.00
       C37          C  0.4114000  0.4346000  0.1280000    0.00000       Uiso       1.00
       C38          C  0.4477000  0.3881000  0.2648000    0.00000       Uiso       1.00
       H25          H  0.5168000  0.3896000  0.2887000    0.00000       Uiso       1.00
       C39          C  0.3802000  0.3392000  0.3658000    0.00000       Uiso       1.00
       H26          H  0.4032000  0.3081000  0.4591000    0.00000       Uiso       1.00
       C40          C  0.2823000  0.3373000  0.3279000    0.00000       Uiso       1.00
       C41          C  0.2451000  0.3773000  0.1916000    0.00000       Uiso       1.00
       H27          H  0.1766000  0.3715000  0.1647000    0.00000       Uiso       1.00
       C42          C  0.3119000  0.4264000  0.0958000    0.00000       Uiso       1.00
       H28          H  0.2874000  0.4562000  0.0024000    0.00000       Uiso       1.00
        N7          N  0.2118000  0.2813000  0.4223000    0.00000       Uiso       1.00
        O7          O  0.1462000  0.2326000  0.3571000    0.00000       Uiso       1.00
       C43          C  0.5886000  0.5654000  0.1280000    0.00000       Uiso       1.00
       C44          C  0.5523000  0.6119000  0.2648000    0.00000       Uiso       1.00
       H29          H  0.4832000  0.6104000  0.2887000    0.00000       Uiso       1.00
       C45          C  0.6198000  0.6608000  0.3658000    0.00000       Uiso       1.00
       H30          H  0.5968000  0.6919000  0.4591000    0.00000       Uiso       1.00
       C46          C  0.7177000  0.6627000  0.3279000    0.00000       Uiso       1.00
       C47          C  0.7549000  0.6227000  0.1916000    0.00000       Uiso       1.00
       H31          H  0.8234001  0.6285000  0.1647000    0.00000       Uiso       1.00
       C48          C  0.6881000  0.5736000  0.0958000    0.00000       Uiso       1.00
       H32          H  0.7126001  0.5438000  0.0024000    0.00000       Uiso       1.00
        N8          N  0.7882000  0.7187001  0.4223000    0.00000       Uiso       1.00
        O8          O  0.8538001  0.7674000  0.3571000    0.00000       Uiso       1.00
       Si1         Si  0.0000000  0.0000000  0.0000000    0.00000       Uiso       1.00
       Si2         Si  0.5000000  0.5000000  0.0000000    0.00000       Uiso       1.00
