data_nchem.NPN-3
_audit_creation_date              0000-00-00
_audit_creation_method            'LanYouShi'
_symmetry_space_group_name_H-M    'P1'
_cell_length_a                    15.7702999
_cell_length_b                    15.7702999
_cell_length_c                    7.0717001
_cell_angle_alpha                 90.0000000
_cell_angle_beta                  90.0000000
_cell_angle_gamma                 90.0000000
loop_
_atom_site_label
_atom_site_type_symbol
_atom_site_fract_x
_atom_site_fract_y
_atom_site_fract_z
_atom_site_U_iso_or_equiv
_atom_site_adp_type
_atom_site_occupancy
        H1          H  0.7848000  0.7870000  0.0814000    0.00000       Uiso       1.00
        C1          C  0.8087000  0.6947200  0.8769000    0.00000       Uiso       1.00
        C2          C  0.8624500  0.7532700  0.7496000    0.00000       Uiso       1.00
        H2          H  0.8984000  0.7902000  0.8296000    0.00000       Uiso       1.00
        H3          H  0.9002000  0.7184000  0.6692000    0.00000       Uiso       1.00
        C3          C  0.8636300  0.6412000  0.0096000    0.00000       Uiso       1.00
        C4          C  0.9517200  0.6481400  0.0184000    0.00000       Uiso       1.00
        H4          H  0.9801000  0.6850000  0.9330000    0.00000       Uiso       1.00
        C5          C  0.9988000  0.6026100  0.1487000    0.00000       Uiso       1.00
        H5          H  0.0589000  0.6066000  0.1484000    0.00000       Uiso       1.00
        C6          C  0.9582200  0.5510700  0.2800000    0.00000       Uiso       1.00
        C7          C  0.8706200  0.5408700  0.2727000    0.00000       Uiso       1.00
        H6          H  0.8425000  0.5043000  0.3590000    0.00000       Uiso       1.00
        C8          C  0.8251500  0.5851099  0.1369000    0.00000       Uiso       1.00
        H7          H  0.7655000  0.5770000  0.1300000    0.00000       Uiso       1.00
        N1          N  0.0122700  0.5062000  0.4130000    0.00000       Uiso       1.00
        O1          O  0.0839100  0.4819000  0.3523000    0.00000       Uiso       1.00
        H8          H  0.7152000  0.7130000  0.0814000    0.00000       Uiso       1.00
        C9          C  0.6913000  0.8052800  0.8769000    0.00000       Uiso       1.00
       C10          C  0.6375500  0.7467300  0.7496000    0.00000       Uiso       1.00
        H9          H  0.6016000  0.7098000  0.8296000    0.00000       Uiso       1.00
       H10          H  0.5998001  0.7816000  0.6692000    0.00000       Uiso       1.00
       C11          C  0.6363700  0.8588000  0.0096000    0.00000       Uiso       1.00
       C12          C  0.5482800  0.8518600  0.0184000    0.00000       Uiso       1.00
       H11          H  0.5199000  0.8150000  0.9330000    0.00000       Uiso       1.00
       C13          C  0.5012000  0.8973900  0.1487000    0.00000       Uiso       1.00
       H12          H  0.4411000  0.8934000  0.1484000    0.00000       Uiso       1.00
       C14          C  0.5417800  0.9489300  0.2800000    0.00000       Uiso       1.00
       C15          C  0.6293800  0.9591300  0.2727000    0.00000       Uiso       1.00
       H13          H  0.6575000  0.9957000  0.3590000    0.00000       Uiso       1.00
       C16          C  0.6748500  0.9148901  0.1369000    0.00000       Uiso       1.00
       H14          H  0.7345000  0.9230000  0.1300000    0.00000       Uiso       1.00
        N2          N  0.4877300  0.9938000  0.4130000    0.00000       Uiso       1.00
        O2          O  0.4160900  0.0181000  0.3523000    0.00000       Uiso       1.00
       H15          H  0.2130000  0.2848000  0.5814000    0.00000       Uiso       1.00
       C17          C  0.3052800  0.3087000  0.3769000    0.00000       Uiso       1.00
       C18          C  0.2467300  0.3624500  0.2496000    0.00000       Uiso       1.00
       H16          H  0.2098000  0.3984000  0.3296000    0.00000       Uiso       1.00
       H17          H  0.2816000  0.4002000  0.1692000    0.00000       Uiso       1.00
       C19          C  0.3588000  0.3636300  0.5096000    0.00000       Uiso       1.00
       C20          C  0.3518600  0.4517200  0.5184000    0.00000       Uiso       1.00
       H18          H  0.3150000  0.4801000  0.4330000    0.00000       Uiso       1.00
       C21          C  0.3973900  0.4988000  0.6487000    0.00000       Uiso       1.00
       H19          H  0.3934000  0.5589001  0.6484000    0.00000       Uiso       1.00
       C22          C  0.4489300  0.4582200  0.7800000    0.00000       Uiso       1.00
       C23          C  0.4591300  0.3706200  0.7727000    0.00000       Uiso       1.00
       H20          H  0.4957000  0.3425000  0.8590000    0.00000       Uiso       1.00
       C24          C  0.4148900  0.3251500  0.6369000    0.00000       Uiso       1.00
       H21          H  0.4230000  0.2655000  0.6300000    0.00000       Uiso       1.00
        N3          N  0.4938000  0.5122700  0.9130000    0.00000       Uiso       1.00
        O3          O  0.5181000  0.5839100  0.8523000    0.00000       Uiso       1.00
       H22          H  0.2870000  0.2152000  0.5814000    0.00000       Uiso       1.00
       C25          C  0.1947200  0.1913000  0.3769000    0.00000       Uiso       1.00
       C26          C  0.2532700  0.1375500  0.2496000    0.00000       Uiso       1.00
       H23          H  0.2902000  0.1016000  0.3296000    0.00000       Uiso       1.00
       H24          H  0.2184000  0.0998000  0.1692000    0.00000       Uiso       1.00
       C27          C  0.1412000  0.1363700  0.5096000    0.00000       Uiso       1.00
       C28          C  0.1481400  0.0482800  0.5184000    0.00000       Uiso       1.00
       H25          H  0.1850000  0.0199000  0.4330000    0.00000       Uiso       1.00
       C29          C  0.1026100  0.0012000  0.6487000    0.00000       Uiso       1.00
       H26          H  0.1066000  0.9411000  0.6484000    0.00000       Uiso       1.00
       C30          C  0.0510700  0.0417800  0.7800000    0.00000       Uiso       1.00
       C31          C  0.0408700  0.1293800  0.7727000    0.00000       Uiso       1.00
       H27          H  0.0043000  0.1575000  0.8590000    0.00000       Uiso       1.00
       C32          C  0.0851100  0.1748500  0.6369000    0.00000       Uiso       1.00
       H28          H  0.0770000  0.2345000  0.6300000    0.00000       Uiso       1.00
        N4          N  0.0062000  0.9877300  0.9130000    0.00000       Uiso       1.00
        O4          O  0.9819000  0.9160900  0.8523000    0.00000       Uiso       1.00
       H29          H  0.2152000  0.2130000  0.9186000    0.00000       Uiso       1.00
       C33          C  0.1913000  0.3052800  0.1231000    0.00000       Uiso       1.00
       C34          C  0.1375500  0.2467300  0.2504000    0.00000       Uiso       1.00
       H30          H  0.1016000  0.2098000  0.1704000    0.00000       Uiso       1.00
       H31          H  0.0998000  0.2816000  0.3308000    0.00000       Uiso       1.00
       C35          C  0.1363700  0.3588000  0.9904000    0.00000       Uiso       1.00
       C36          C  0.0482800  0.3518600  0.9816000    0.00000       Uiso       1.00
       H32          H  0.0199000  0.3150000  0.0670000    0.00000       Uiso       1.00
       C37          C  0.0012000  0.3973900  0.8513000    0.00000       Uiso       1.00
       H33          H  0.9411000  0.3934000  0.8516000    0.00000       Uiso       1.00
       C38          C  0.0417800  0.4489300  0.7200000    0.00000       Uiso       1.00
       C39          C  0.1293800  0.4591300  0.7273000    0.00000       Uiso       1.00
       H34          H  0.1575000  0.4957000  0.6410000    0.00000       Uiso       1.00
       C40          C  0.1748500  0.4148900  0.8631000    0.00000       Uiso       1.00
       H35          H  0.2345000  0.4230000  0.8700000    0.00000       Uiso       1.00
        N5          N  0.9877300  0.4938000  0.5870000    0.00000       Uiso       1.00
        O5          O  0.9160900  0.5181000  0.6477000    0.00000       Uiso       1.00
       H36          H  0.2848000  0.2870000  0.9186000    0.00000       Uiso       1.00
       C41          C  0.3087000  0.1947200  0.1231000    0.00000       Uiso       1.00
       C42          C  0.3624500  0.2532700  0.2504000    0.00000       Uiso       1.00
       H37          H  0.3984000  0.2902000  0.1704000    0.00000       Uiso       1.00
       H38          H  0.4002000  0.2184000  0.3308000    0.00000       Uiso       1.00
       C43          C  0.3636300  0.1412000  0.9904000    0.00000       Uiso       1.00
       C44          C  0.4517200  0.1481400  0.9816000    0.00000       Uiso       1.00
       H39          H  0.4801000  0.1850000  0.0670000    0.00000       Uiso       1.00
       C45          C  0.4988000  0.1026100  0.8513000    0.00000       Uiso       1.00
       H40          H  0.5589001  0.1066000  0.8516000    0.00000       Uiso       1.00
       C46          C  0.4582200  0.0510700  0.7200000    0.00000       Uiso       1.00
       C47          C  0.3706200  0.0408700  0.7273000    0.00000       Uiso       1.00
       H41          H  0.3425000  0.0043000  0.6410000    0.00000       Uiso       1.00
       C48          C  0.3251500  0.0851100  0.8631000    0.00000       Uiso       1.00
       H42          H  0.2655000  0.0770000  0.8700000    0.00000       Uiso       1.00
        N6          N  0.5122700  0.0062000  0.5870000    0.00000       Uiso       1.00
        O6          O  0.5839100  0.9819000  0.6477000    0.00000       Uiso       1.00
       H43          H  0.7870000  0.7152000  0.4186000    0.00000       Uiso       1.00
       C49          C  0.6947200  0.6913000  0.6231000    0.00000       Uiso       1.00
       C50          C  0.7532700  0.6375500  0.7504000    0.00000       Uiso       1.00
       H44          H  0.7902000  0.6016000  0.6704000    0.00000       Uiso       1.00
       H45          H  0.7184000  0.5998001  0.8308000    0.00000       Uiso       1.00
       C51          C  0.6412000  0.6363700  0.4904000    0.00000       Uiso       1.00
       C52          C  0.6481400  0.5482800  0.4816000    0.00000       Uiso       1.00
       H46          H  0.6850000  0.5199000  0.5670000    0.00000       Uiso       1.00
       C53          C  0.6026100  0.5012000  0.3513000    0.00000       Uiso       1.00
       H47          H  0.6066000  0.4411000  0.3516000    0.00000       Uiso       1.00
       C54          C  0.5510700  0.5417800  0.2200000    0.00000       Uiso       1.00
       C55          C  0.5408700  0.6293800  0.2273000    0.00000       Uiso       1.00
       H48          H  0.5043000  0.6575000  0.1410000    0.00000       Uiso       1.00
       C56          C  0.5851099  0.6748500  0.3631000    0.00000       Uiso       1.00
       H49          H  0.5770000  0.7345000  0.3700000    0.00000       Uiso       1.00
        N7          N  0.5062000  0.4877300  0.0870000    0.00000       Uiso       1.00
        O7          O  0.4819000  0.4160900  0.1477000    0.00000       Uiso       1.00
       H50          H  0.7130000  0.7848000  0.4186000    0.00000       Uiso       1.00
       C57          C  0.8052800  0.8087000  0.6231000    0.00000       Uiso       1.00
       C58          C  0.7467300  0.8624500  0.7504000    0.00000       Uiso       1.00
       H51          H  0.7098000  0.8984000  0.6704000    0.00000       Uiso       1.00
       H52          H  0.7816000  0.9002000  0.8308000    0.00000       Uiso       1.00
       C59          C  0.8588000  0.8636300  0.4904000    0.00000       Uiso       1.00
       C60          C  0.8518600  0.9517200  0.4816000    0.00000       Uiso       1.00
       H53          H  0.8150000  0.9801000  0.5670000    0.00000       Uiso       1.00
       C61          C  0.8973900  0.9988000  0.3513000    0.00000       Uiso       1.00
       H54          H  0.8934000  0.0589000  0.3516000    0.00000       Uiso       1.00
       C62          C  0.9489300  0.9582200  0.2200000    0.00000       Uiso       1.00
       C63          C  0.9591300  0.8706200  0.2273000    0.00000       Uiso       1.00
       H55          H  0.9957000  0.8425000  0.1410000    0.00000       Uiso       1.00
       C64          C  0.9148901  0.8251500  0.3631000    0.00000       Uiso       1.00
       H56          H  0.9230000  0.7655000  0.3700000    0.00000       Uiso       1.00
        N8          N  0.9938000  0.0122700  0.0870000    0.00000       Uiso       1.00
        O8          O  0.0181000  0.0839100  0.1477000    0.00000       Uiso       1.00
       C65          C  0.7500001  0.7500001  0.9990000    0.00000       Uiso       1.00
       C66          C  0.2500000  0.2500000  0.4990000    0.00000       Uiso       1.00
       C67          C  0.2500000  0.2500000  0.0010000    0.00000       Uiso       1.00
       C68          C  0.7500001  0.7500001  0.5010000    0.00000       Uiso       1.00
