data_Ni-DBA-3D-COF-bor
_audit_creation_date              0000-00-00
_audit_creation_method            'LanYouShi'
_symmetry_space_group_name_H-M    'P1'
_cell_length_a                    31.9529991
_cell_length_b                    31.9529991
_cell_length_c                    31.9529991
_cell_angle_alpha                 90.0000000
_cell_angle_beta                  90.0000000
_cell_angle_gamma                 90.0000000
loop_
_atom_site_label
_atom_site_type_symbol
_atom_site_fract_x
_atom_site_fract_y
_atom_site_fract_z
_atom_site_U_iso_or_equiv
_atom_site_adp_type
_atom_site_occupancy
        C1          C  0.4312378  0.4312378  0.0988576    0.00000       Uiso       1.00
        C2          C  0.4685814  0.4150910  0.0815224    0.00000       Uiso       1.00
        C3          C  0.4150910  0.4685814  0.0815224    0.00000       Uiso       1.00
        C4          C  0.4896159  0.4363050  0.0489606    0.00000       Uiso       1.00
        C5          C  0.4363050  0.4896159  0.0489606    0.00000       Uiso       1.00
        C6          C  0.4743767  0.4743767  0.0316121    0.00000       Uiso       1.00
        C1          C  0.5687633  0.5687633  0.0988576    0.00000       Uiso       1.00
        C2          C  0.5314198  0.5849102  0.0815224    0.00000       Uiso       1.00
        C3          C  0.5849102  0.5314198  0.0815224    0.00000       Uiso       1.00
        C4          C  0.5103852  0.5636962  0.0489606    0.00000       Uiso       1.00
        C5          C  0.5636962  0.5103852  0.0489606    0.00000       Uiso       1.00
        C6          C  0.5256245  0.5256245  0.0316121    0.00000       Uiso       1.00
        C1          C  0.5687633  0.4312378  0.9011436    0.00000       Uiso       1.00
        C2          C  0.5314198  0.4150910  0.9184787    0.00000       Uiso       1.00
        C3          C  0.5849102  0.4685814  0.9184787    0.00000       Uiso       1.00
        C4          C  0.5103852  0.4363050  0.9510406    0.00000       Uiso       1.00
        C5          C  0.5636962  0.4896159  0.9510406    0.00000       Uiso       1.00
        C6          C  0.5256245  0.4743767  0.9683890    0.00000       Uiso       1.00
        C1          C  0.4312378  0.5687633  0.9011436    0.00000       Uiso       1.00
        C2          C  0.4685814  0.5849102  0.9184787    0.00000       Uiso       1.00
        C3          C  0.4150910  0.5314198  0.9184787    0.00000       Uiso       1.00
        C4          C  0.4896159  0.5636962  0.9510406    0.00000       Uiso       1.00
        C5          C  0.4363050  0.5103852  0.9510406    0.00000       Uiso       1.00
        C6          C  0.4743767  0.5256245  0.9683890    0.00000       Uiso       1.00
        C1          C  0.0988576  0.4312378  0.4312378    0.00000       Uiso       1.00
        C2          C  0.0815224  0.4685814  0.4150910    0.00000       Uiso       1.00
        C3          C  0.0815224  0.4150910  0.4685814    0.00000       Uiso       1.00
        C4          C  0.0489606  0.4896159  0.4363050    0.00000       Uiso       1.00
        C5          C  0.0489606  0.4363050  0.4896159    0.00000       Uiso       1.00
        C6          C  0.0316121  0.4743767  0.4743767    0.00000       Uiso       1.00
        C1          C  0.0988576  0.5687633  0.5687633    0.00000       Uiso       1.00
        C2          C  0.0815224  0.5314198  0.5849102    0.00000       Uiso       1.00
        C3          C  0.0815224  0.5849102  0.5314198    0.00000       Uiso       1.00
        C4          C  0.0489606  0.5103852  0.5636962    0.00000       Uiso       1.00
        C5          C  0.0489606  0.5636962  0.5103852    0.00000       Uiso       1.00
        C6          C  0.0316121  0.5256245  0.5256245    0.00000       Uiso       1.00
        C1          C  0.9011436  0.5687633  0.4312378    0.00000       Uiso       1.00
        C2          C  0.9184787  0.5314198  0.4150910    0.00000       Uiso       1.00
        C3          C  0.9184787  0.5849102  0.4685814    0.00000       Uiso       1.00
        C4          C  0.9510406  0.5103852  0.4363050    0.00000       Uiso       1.00
        C5          C  0.9510406  0.5636962  0.4896159    0.00000       Uiso       1.00
        C6          C  0.9683890  0.5256245  0.4743767    0.00000       Uiso       1.00
        C1          C  0.9011436  0.4312378  0.5687633    0.00000       Uiso       1.00
        C2          C  0.9184787  0.4685814  0.5849102    0.00000       Uiso       1.00
        C3          C  0.9184787  0.4150910  0.5314198    0.00000       Uiso       1.00
        C4          C  0.9510406  0.4896159  0.5636962    0.00000       Uiso       1.00
        C5          C  0.9510406  0.4363050  0.5103852    0.00000       Uiso       1.00
        C6          C  0.9683890  0.4743767  0.5256245    0.00000       Uiso       1.00
        C1          C  0.4312378  0.0988576  0.4312378    0.00000       Uiso       1.00
        C2          C  0.4150910  0.0815224  0.4685814    0.00000       Uiso       1.00
        C3          C  0.4685814  0.0815224  0.4150910    0.00000       Uiso       1.00
        C4          C  0.4363050  0.0489606  0.4896159    0.00000       Uiso       1.00
        C5          C  0.4896159  0.0489606  0.4363050    0.00000       Uiso       1.00
        C6          C  0.4743767  0.0316121  0.4743767    0.00000       Uiso       1.00
        C1          C  0.5687633  0.0988576  0.5687633    0.00000       Uiso       1.00
        C2          C  0.5849102  0.0815224  0.5314198    0.00000       Uiso       1.00
        C3          C  0.5314198  0.0815224  0.5849102    0.00000       Uiso       1.00
        C4          C  0.5636962  0.0489606  0.5103852    0.00000       Uiso       1.00
        C5          C  0.5103852  0.0489606  0.5636962    0.00000       Uiso       1.00
        C6          C  0.5256245  0.0316121  0.5256245    0.00000       Uiso       1.00
        C1          C  0.4312378  0.9011436  0.5687633    0.00000       Uiso       1.00
        C2          C  0.4150910  0.9184787  0.5314198    0.00000       Uiso       1.00
        C3          C  0.4685814  0.9184787  0.5849102    0.00000       Uiso       1.00
        C4          C  0.4363050  0.9510406  0.5103852    0.00000       Uiso       1.00
        C5          C  0.4896159  0.9510406  0.5636962    0.00000       Uiso       1.00
        C6          C  0.4743767  0.9683890  0.5256245    0.00000       Uiso       1.00
        C1          C  0.5687633  0.9011436  0.4312378    0.00000       Uiso       1.00
        C2          C  0.5849102  0.9184787  0.4685814    0.00000       Uiso       1.00
        C3          C  0.5314198  0.9184787  0.4150910    0.00000       Uiso       1.00
        C4          C  0.5636962  0.9510406  0.4896159    0.00000       Uiso       1.00
        C5          C  0.5103852  0.9510406  0.4363050    0.00000       Uiso       1.00
        C6          C  0.5256245  0.9683890  0.4743767    0.00000       Uiso       1.00
        H1          H  0.4828030  0.4239219  0.9614980    0.00000       Uiso       1.00
        H2          H  0.5171981  0.5760793  0.9614980    0.00000       Uiso       1.00
        H3          H  0.5171981  0.4239219  0.0385031    0.00000       Uiso       1.00
        H4          H  0.4828030  0.5760793  0.0385031    0.00000       Uiso       1.00
        H5          H  0.9614980  0.4828030  0.4239219    0.00000       Uiso       1.00
        H6          H  0.9614980  0.5171981  0.5760793    0.00000       Uiso       1.00
        H7          H  0.0385031  0.5171981  0.4239219    0.00000       Uiso       1.00
        H8          H  0.0385031  0.4828030  0.5760793    0.00000       Uiso       1.00
        H9          H  0.4239219  0.9614980  0.4828030    0.00000       Uiso       1.00
       H10          H  0.5760793  0.9614980  0.5171981    0.00000       Uiso       1.00
       H11          H  0.4239219  0.0385031  0.5171981    0.00000       Uiso       1.00
       H12          H  0.5760793  0.0385031  0.4828030    0.00000       Uiso       1.00
       H13          H  0.4239219  0.4828030  0.9614980    0.00000       Uiso       1.00
       H14          H  0.5760793  0.5171981  0.9614980    0.00000       Uiso       1.00
       H15          H  0.4239219  0.5171981  0.0385031    0.00000       Uiso       1.00
       H16          H  0.5760793  0.4828030  0.0385031    0.00000       Uiso       1.00
       H17          H  0.4828030  0.9614980  0.4239219    0.00000       Uiso       1.00
       H18          H  0.5171981  0.9614980  0.5760793    0.00000       Uiso       1.00
       H19          H  0.5171981  0.0385031  0.4239219    0.00000       Uiso       1.00
       H20          H  0.4828030  0.0385031  0.5760793    0.00000       Uiso       1.00
       H21          H  0.9614980  0.4239219  0.4828030    0.00000       Uiso       1.00
       H22          H  0.9614980  0.5760793  0.5171981    0.00000       Uiso       1.00
       H23          H  0.0385031  0.4239219  0.5171981    0.00000       Uiso       1.00
       H24          H  0.0385031  0.5760793  0.4828030    0.00000       Uiso       1.00
       H25          H  0.3879056  0.4811195  0.0930960    0.00000       Uiso       1.00
       H26          H  0.6120956  0.5188816  0.0930960    0.00000       Uiso       1.00
       H27          H  0.6120956  0.4811195  0.9069052    0.00000       Uiso       1.00
       H28          H  0.3879056  0.5188816  0.9069052    0.00000       Uiso       1.00
       H29          H  0.0930960  0.3879056  0.4811195    0.00000       Uiso       1.00
       H30          H  0.0930960  0.6120956  0.5188816    0.00000       Uiso       1.00
       H31          H  0.9069052  0.6120956  0.4811195    0.00000       Uiso       1.00
       H32          H  0.9069052  0.3879056  0.5188816    0.00000       Uiso       1.00
       H33          H  0.4811195  0.0930960  0.3879056    0.00000       Uiso       1.00
       H34          H  0.5188816  0.0930960  0.6120956    0.00000       Uiso       1.00
       H35          H  0.4811195  0.9069052  0.6120956    0.00000       Uiso       1.00
       H36          H  0.5188816  0.9069052  0.3879056    0.00000       Uiso       1.00
       H37          H  0.4811195  0.3879056  0.0930960    0.00000       Uiso       1.00
       H38          H  0.5188816  0.6120956  0.0930960    0.00000       Uiso       1.00
       H39          H  0.4811195  0.6120956  0.9069052    0.00000       Uiso       1.00
       H40          H  0.5188816  0.3879056  0.9069052    0.00000       Uiso       1.00
       H41          H  0.3879056  0.0930960  0.4811195    0.00000       Uiso       1.00
       H42          H  0.6120956  0.0930960  0.5188816    0.00000       Uiso       1.00
       H43          H  0.6120956  0.9069052  0.4811195    0.00000       Uiso       1.00
       H44          H  0.3879056  0.9069052  0.5188816    0.00000       Uiso       1.00
       H45          H  0.0930960  0.4811195  0.3879056    0.00000       Uiso       1.00
       H46          H  0.0930960  0.5188816  0.6120956    0.00000       Uiso       1.00
       H47          H  0.9069052  0.4811195  0.6120956    0.00000       Uiso       1.00
       H48          H  0.9069052  0.5188816  0.3879056    0.00000       Uiso       1.00
       C25          C  0.5000006  0.5000006  0.0000006    0.00000       Uiso       1.00
       C25          C  0.0000006  0.5000006  0.5000006    0.00000       Uiso       1.00
       C25          C  0.5000006  0.0000006  0.5000006    0.00000       Uiso       1.00
       C76          C  0.6337292  0.6028702  0.1874445    0.00000       Uiso       1.00
       C77          C  0.6657048  0.6029392  0.2175888    0.00000       Uiso       1.00
       C81          C  0.6964760  0.6336387  0.2770128    0.00000       Uiso       1.00
       C82          C  0.6664489  0.6347169  0.2486996    0.00000       Uiso       1.00
         H          H  0.6876948  0.5797027  0.2164153    0.00000       Uiso       1.00
       C76          C  0.3662720  0.3971309  0.1874445    0.00000       Uiso       1.00
       C77          C  0.3342963  0.3970619  0.2175888    0.00000       Uiso       1.00
       C81          C  0.3035251  0.3663625  0.2770128    0.00000       Uiso       1.00
       C82          C  0.3335523  0.3652843  0.2486996    0.00000       Uiso       1.00
         H          H  0.3123064  0.4202985  0.2164153    0.00000       Uiso       1.00
       C76          C  0.3662720  0.6028702  0.8125566    0.00000       Uiso       1.00
       C77          C  0.3342963  0.6029392  0.7824124    0.00000       Uiso       1.00
       C81          C  0.3035251  0.6336387  0.7229883    0.00000       Uiso       1.00
       C82          C  0.3335523  0.6347169  0.7513015    0.00000       Uiso       1.00
         H          H  0.3123064  0.5797027  0.7835858    0.00000       Uiso       1.00
       C76          C  0.6337292  0.3971309  0.8125566    0.00000       Uiso       1.00
       C77          C  0.6657048  0.3970619  0.7824124    0.00000       Uiso       1.00
       C81          C  0.6964760  0.3663625  0.7229883    0.00000       Uiso       1.00
       C82          C  0.6664489  0.3652843  0.7513015    0.00000       Uiso       1.00
         H          H  0.6876948  0.4202985  0.7835858    0.00000       Uiso       1.00
       C76          C  0.1874445  0.6337292  0.6028702    0.00000       Uiso       1.00
       C77          C  0.2175888  0.6657048  0.6029392    0.00000       Uiso       1.00
       C81          C  0.2770128  0.6964760  0.6336387    0.00000       Uiso       1.00
       C82          C  0.2486996  0.6664489  0.6347169    0.00000       Uiso       1.00
         H          H  0.2164153  0.6876948  0.5797027    0.00000       Uiso       1.00
       C76          C  0.1874445  0.3662720  0.3971309    0.00000       Uiso       1.00
       C77          C  0.2175888  0.3342963  0.3970619    0.00000       Uiso       1.00
       C81          C  0.2770128  0.3035251  0.3663625    0.00000       Uiso       1.00
       C82          C  0.2486996  0.3335523  0.3652843    0.00000       Uiso       1.00
         H          H  0.2164153  0.3123064  0.4202985    0.00000       Uiso       1.00
       C76          C  0.8125566  0.3662720  0.6028702    0.00000       Uiso       1.00
       C77          C  0.7824124  0.3342963  0.6029392    0.00000       Uiso       1.00
       C81          C  0.7229883  0.3035251  0.6336387    0.00000       Uiso       1.00
       C82          C  0.7513015  0.3335523  0.6347169    0.00000       Uiso       1.00
         H          H  0.7835858  0.3123064  0.5797027    0.00000       Uiso       1.00
       C76          C  0.8125566  0.6337292  0.3971309    0.00000       Uiso       1.00
       C77          C  0.7824124  0.6657048  0.3970619    0.00000       Uiso       1.00
       C81          C  0.7229883  0.6964760  0.3663625    0.00000       Uiso       1.00
       C82          C  0.7513015  0.6664489  0.3652843    0.00000       Uiso       1.00
         H          H  0.7835858  0.6876948  0.4202985    0.00000       Uiso       1.00
       C76          C  0.6028702  0.1874445  0.6337292    0.00000       Uiso       1.00
       C77          C  0.6029392  0.2175888  0.6657048    0.00000       Uiso       1.00
       C81          C  0.6336387  0.2770128  0.6964760    0.00000       Uiso       1.00
       C82          C  0.6347169  0.2486996  0.6664489    0.00000       Uiso       1.00
         H          H  0.5797027  0.2164153  0.6876948    0.00000       Uiso       1.00
       C76          C  0.3971309  0.1874445  0.3662720    0.00000       Uiso       1.00
       C77          C  0.3970619  0.2175888  0.3342963    0.00000       Uiso       1.00
       C81          C  0.3663625  0.2770128  0.3035251    0.00000       Uiso       1.00
       C82          C  0.3652843  0.2486996  0.3335523    0.00000       Uiso       1.00
         H          H  0.4202985  0.2164153  0.3123064    0.00000       Uiso       1.00
       C76          C  0.6028702  0.8125566  0.3662720    0.00000       Uiso       1.00
       C77          C  0.6029392  0.7824124  0.3342963    0.00000       Uiso       1.00
       C81          C  0.6336387  0.7229883  0.3035251    0.00000       Uiso       1.00
       C82          C  0.6347169  0.7513015  0.3335523    0.00000       Uiso       1.00
         H          H  0.5797027  0.7835858  0.3123064    0.00000       Uiso       1.00
       C76          C  0.3971309  0.8125566  0.6337292    0.00000       Uiso       1.00
       C77          C  0.3970619  0.7824124  0.6657048    0.00000       Uiso       1.00
       C81          C  0.3663625  0.7229883  0.6964760    0.00000       Uiso       1.00
       C82          C  0.3652843  0.7513015  0.6664489    0.00000       Uiso       1.00
         H          H  0.4202985  0.7835858  0.6876948    0.00000       Uiso       1.00
       C76          C  0.6028702  0.6337292  0.1874445    0.00000       Uiso       1.00
       C77          C  0.6029392  0.6657048  0.2175888    0.00000       Uiso       1.00
       C81          C  0.6336387  0.6964760  0.2770128    0.00000       Uiso       1.00
       C82          C  0.6347169  0.6664489  0.2486996    0.00000       Uiso       1.00
         H          H  0.5797027  0.6876948  0.2164153    0.00000       Uiso       1.00
       C76          C  0.3971309  0.3662720  0.1874445    0.00000       Uiso       1.00
       C77          C  0.3970619  0.3342963  0.2175888    0.00000       Uiso       1.00
       C81          C  0.3663625  0.3035251  0.2770128    0.00000       Uiso       1.00
       C82          C  0.3652843  0.3335523  0.2486996    0.00000       Uiso       1.00
         H          H  0.4202985  0.3123064  0.2164153    0.00000       Uiso       1.00
       C76          C  0.6028702  0.3662720  0.8125566    0.00000       Uiso       1.00
       C77          C  0.6029392  0.3342963  0.7824124    0.00000       Uiso       1.00
       C81          C  0.6336387  0.3035251  0.7229883    0.00000       Uiso       1.00
       C82          C  0.6347169  0.3335523  0.7513015    0.00000       Uiso       1.00
         H          H  0.5797027  0.3123064  0.7835858    0.00000       Uiso       1.00
       C76          C  0.3971309  0.6337292  0.8125566    0.00000       Uiso       1.00
       C77          C  0.3970619  0.6657048  0.7824124    0.00000       Uiso       1.00
       C81          C  0.3663625  0.6964760  0.7229883    0.00000       Uiso       1.00
       C82          C  0.3652843  0.6664489  0.7513015    0.00000       Uiso       1.00
         H          H  0.4202985  0.6876948  0.7835858    0.00000       Uiso       1.00
       C76          C  0.6337292  0.1874445  0.6028702    0.00000       Uiso       1.00
       C77          C  0.6657048  0.2175888  0.6029392    0.00000       Uiso       1.00
       C81          C  0.6964760  0.2770128  0.6336387    0.00000       Uiso       1.00
       C82          C  0.6664489  0.2486996  0.6347169    0.00000       Uiso       1.00
         H          H  0.6876948  0.2164153  0.5797027    0.00000       Uiso       1.00
       C76          C  0.3662720  0.1874445  0.3971309    0.00000       Uiso       1.00
       C77          C  0.3342963  0.2175888  0.3970619    0.00000       Uiso       1.00
       C81          C  0.3035251  0.2770128  0.3663625    0.00000       Uiso       1.00
       C82          C  0.3335523  0.2486996  0.3652843    0.00000       Uiso       1.00
         H          H  0.3123064  0.2164153  0.4202985    0.00000       Uiso       1.00
       C76          C  0.3662720  0.8125566  0.6028702    0.00000       Uiso       1.00
       C77          C  0.3342963  0.7824124  0.6029392    0.00000       Uiso       1.00
       C81          C  0.3035251  0.7229883  0.6336387    0.00000       Uiso       1.00
       C82          C  0.3335523  0.7513015  0.6347169    0.00000       Uiso       1.00
         H          H  0.3123064  0.7835858  0.5797027    0.00000       Uiso       1.00
       C76          C  0.6337292  0.8125566  0.3971309    0.00000       Uiso       1.00
       C77          C  0.6657048  0.7824124  0.3970619    0.00000       Uiso       1.00
       C81          C  0.6964760  0.7229883  0.3663625    0.00000       Uiso       1.00
       C82          C  0.6664489  0.7513015  0.3652843    0.00000       Uiso       1.00
         H          H  0.6876948  0.7835858  0.4202985    0.00000       Uiso       1.00
       C76          C  0.1874445  0.6028702  0.6337292    0.00000       Uiso       1.00
       C77          C  0.2175888  0.6029392  0.6657048    0.00000       Uiso       1.00
       C81          C  0.2770128  0.6336387  0.6964760    0.00000       Uiso       1.00
       C82          C  0.2486996  0.6347169  0.6664489    0.00000       Uiso       1.00
         H          H  0.2164153  0.5797027  0.6876948    0.00000       Uiso       1.00
       C76          C  0.1874445  0.3971309  0.3662720    0.00000       Uiso       1.00
       C77          C  0.2175888  0.3970619  0.3342963    0.00000       Uiso       1.00
       C81          C  0.2770128  0.3663625  0.3035251    0.00000       Uiso       1.00
       C82          C  0.2486996  0.3652843  0.3335523    0.00000       Uiso       1.00
         H          H  0.2164153  0.4202985  0.3123064    0.00000       Uiso       1.00
       C76          C  0.8125566  0.6028702  0.3662720    0.00000       Uiso       1.00
       C77          C  0.7824124  0.6029392  0.3342963    0.00000       Uiso       1.00
       C81          C  0.7229883  0.6336387  0.3035251    0.00000       Uiso       1.00
       C82          C  0.7513015  0.6347169  0.3335523    0.00000       Uiso       1.00
         H          H  0.7835858  0.5797027  0.3123064    0.00000       Uiso       1.00
       C76          C  0.8125566  0.3971309  0.6337292    0.00000       Uiso       1.00
       C77          C  0.7824124  0.3970619  0.6657048    0.00000       Uiso       1.00
       C81          C  0.7229883  0.3663625  0.6964760    0.00000       Uiso       1.00
       C82          C  0.7513015  0.3652843  0.6664489    0.00000       Uiso       1.00
         H          H  0.7835858  0.4202985  0.6876948    0.00000       Uiso       1.00
        O1          O  0.6272221  0.5752950  0.1559978    0.00000       Uiso       1.00
        O1          O  0.3727790  0.4247062  0.1559978    0.00000       Uiso       1.00
        O1          O  0.3727790  0.5752950  0.8440034    0.00000       Uiso       1.00
        O1          O  0.6272221  0.4247062  0.8440034    0.00000       Uiso       1.00
        O1          O  0.1559978  0.6272221  0.5752950    0.00000       Uiso       1.00
        O1          O  0.1559978  0.3727790  0.4247062    0.00000       Uiso       1.00
        O1          O  0.8440034  0.3727790  0.5752950    0.00000       Uiso       1.00
        O1          O  0.8440034  0.6272221  0.4247062    0.00000       Uiso       1.00
        O1          O  0.5752950  0.1559978  0.6272221    0.00000       Uiso       1.00
        O1          O  0.4247062  0.1559978  0.3727790    0.00000       Uiso       1.00
        O1          O  0.5752950  0.8440034  0.3727790    0.00000       Uiso       1.00
        O1          O  0.4247062  0.8440034  0.6272221    0.00000       Uiso       1.00
        O1          O  0.5752950  0.6272221  0.1559978    0.00000       Uiso       1.00
        O1          O  0.4247062  0.3727790  0.1559978    0.00000       Uiso       1.00
        O1          O  0.5752950  0.3727790  0.8440034    0.00000       Uiso       1.00
        O1          O  0.4247062  0.6272221  0.8440034    0.00000       Uiso       1.00
        O1          O  0.6272221  0.1559978  0.5752950    0.00000       Uiso       1.00
        O1          O  0.3727790  0.1559978  0.4247062    0.00000       Uiso       1.00
        O1          O  0.3727790  0.8440034  0.5752950    0.00000       Uiso       1.00
        O1          O  0.6272221  0.8440034  0.4247062    0.00000       Uiso       1.00
        O1          O  0.1559978  0.5752950  0.6272221    0.00000       Uiso       1.00
        O1          O  0.1559978  0.4247062  0.3727790    0.00000       Uiso       1.00
        O1          O  0.8440034  0.5752950  0.3727790    0.00000       Uiso       1.00
        O1          O  0.8440034  0.4247062  0.6272221    0.00000       Uiso       1.00
        B1          B  0.5897393  0.5897393  0.1351494    0.00000       Uiso       1.00
        B2          B  0.8648517  0.5897393  0.4102619    0.00000       Uiso       1.00
        B3          B  0.5897393  0.8648517  0.4102619    0.00000       Uiso       1.00
        B1          B  0.4102619  0.4102619  0.1351494    0.00000       Uiso       1.00
        B2          B  0.1351494  0.4102619  0.4102619    0.00000       Uiso       1.00
        B3          B  0.4102619  0.1351494  0.4102619    0.00000       Uiso       1.00
        B1          B  0.4102619  0.5897393  0.8648517    0.00000       Uiso       1.00
        B2          B  0.1351494  0.5897393  0.5897393    0.00000       Uiso       1.00
        B3          B  0.4102619  0.8648517  0.5897393    0.00000       Uiso       1.00
        B1          B  0.5897393  0.4102619  0.8648517    0.00000       Uiso       1.00
        B2          B  0.8648517  0.4102619  0.5897393    0.00000       Uiso       1.00
        B3          B  0.5897393  0.1351494  0.5897393    0.00000       Uiso       1.00
       Ni1         Ni  0.3158454  0.6841558  0.6841558    0.00000       Uiso       1.00
       Ni2         Ni  0.6841558  0.3158454  0.6841558    0.00000       Uiso       1.00
       Ni3         Ni  0.6841558  0.6841558  0.3158454    0.00000       Uiso       1.00
       Ni4         Ni  0.3158454  0.3158454  0.3158454    0.00000       Uiso       1.00
