data_crystal
 
_cell_length_a    31.95300
_cell_length_b    31.95300
_cell_length_c    31.95300
_cell_angle_alpha 90.00000
_cell_angle_beta  90.00000
_cell_angle_gamma 90.00000
 
_symmetry_space_group_name_Hall 'P 1'
_symmetry_space_group_name_H-M  'P 1'
 
loop_
_symmetry_equiv_pos_as_xyz
 'x,y,z' 
 
loop_
_atom_site_label
_atom_site_type_symbol
_atom_site_fract_x
_atom_site_fract_y
_atom_site_fract_z
_atom_site_charge
C          C       0.43124   0.43124   0.09886   0.0000000000
C          C       0.46858   0.41509   0.08152   0.0000000000
C          C       0.41509   0.46858   0.08152   0.0000000000
C          C       0.48962   0.43630   0.04896   0.0000000000
C          C       0.43630   0.48962   0.04896   0.0000000000
C          C       0.47438   0.47438   0.03161   0.0000000000
C          C       0.56876   0.56876   0.09886   0.0000000000
C          C       0.53142   0.58491   0.08152   0.0000000000
C          C       0.58491   0.53142   0.08152   0.0000000000
C          C       0.51039   0.56370   0.04896   0.0000000000
C          C       0.56370   0.51039   0.04896   0.0000000000
C          C       0.52562   0.52562   0.03161   0.0000000000
C          C       0.56876   0.43124   0.90114   0.0000000000
C          C       0.53142   0.41509   0.91848   0.0000000000
C          C       0.58491   0.46858   0.91848   0.0000000000
C          C       0.51039   0.43630   0.95104   0.0000000000
C          C       0.56370   0.48962   0.95104   0.0000000000
C          C       0.52562   0.47438   0.96839   0.0000000000
C          C       0.43124   0.56876   0.90114   0.0000000000
C          C       0.46858   0.58491   0.91848   0.0000000000
C          C       0.41509   0.53142   0.91848   0.0000000000
C          C       0.48962   0.56370   0.95104   0.0000000000
C          C       0.43630   0.51039   0.95104   0.0000000000
C          C       0.47438   0.52562   0.96839   0.0000000000
C          C       0.09886   0.43124   0.43124   0.0000000000
C          C       0.08152   0.46858   0.41509   0.0000000000
C          C       0.08152   0.41509   0.46858   0.0000000000
C          C       0.04896   0.48962   0.43630   0.0000000000
C          C       0.04896   0.43630   0.48962   0.0000000000
C          C       0.03161   0.47438   0.47438   0.0000000000
C          C       0.09886   0.56876   0.56876   0.0000000000
C          C       0.08152   0.53142   0.58491   0.0000000000
C          C       0.08152   0.58491   0.53142   0.0000000000
C          C       0.04896   0.51039   0.56370   0.0000000000
C          C       0.04896   0.56370   0.51039   0.0000000000
C          C       0.03161   0.52562   0.52562   0.0000000000
C          C       0.90114   0.56876   0.43124   0.0000000000
C          C       0.91848   0.53142   0.41509   0.0000000000
C          C       0.91848   0.58491   0.46858   0.0000000000
C          C       0.95104   0.51039   0.43630   0.0000000000
C          C       0.95104   0.56370   0.48962   0.0000000000
C          C       0.96839   0.52562   0.47438   0.0000000000
C          C       0.90114   0.43124   0.56876   0.0000000000
C          C       0.91848   0.46858   0.58491   0.0000000000
C          C       0.91848   0.41509   0.53142   0.0000000000
C          C       0.95104   0.48962   0.56370   0.0000000000
C          C       0.95104   0.43630   0.51039   0.0000000000
C          C       0.96839   0.47438   0.52562   0.0000000000
C          C       0.43124   0.09886   0.43124   0.0000000000
C          C       0.41509   0.08152   0.46858   0.0000000000
C          C       0.46858   0.08152   0.41509   0.0000000000
C          C       0.43630   0.04896   0.48962   0.0000000000
C          C       0.48962   0.04896   0.43630   0.0000000000
C          C       0.47438   0.03161   0.47438   0.0000000000
C          C       0.56876   0.09886   0.56876   0.0000000000
C          C       0.58491   0.08152   0.53142   0.0000000000
C          C       0.53142   0.08152   0.58491   0.0000000000
C          C       0.56370   0.04896   0.51039   0.0000000000
C          C       0.51039   0.04896   0.56370   0.0000000000
C          C       0.52562   0.03161   0.52562   0.0000000000
C          C       0.43124   0.90114   0.56876   0.0000000000
C          C       0.41509   0.91848   0.53142   0.0000000000
C          C       0.46858   0.91848   0.58491   0.0000000000
C          C       0.43630   0.95104   0.51039   0.0000000000
C          C       0.48962   0.95104   0.56370   0.0000000000
C          C       0.47438   0.96839   0.52562   0.0000000000
C          C       0.56876   0.90114   0.43124   0.0000000000
C          C       0.58491   0.91848   0.46858   0.0000000000
C          C       0.53142   0.91848   0.41509   0.0000000000
C          C       0.56370   0.95104   0.48962   0.0000000000
C          C       0.51039   0.95104   0.43630   0.0000000000
C          C       0.52562   0.96839   0.47438   0.0000000000
H          H       0.48280   0.42392   0.96150   0.0000000000
H          H       0.51720   0.57608   0.96150   0.0000000000
H          H       0.51720   0.42392   0.03850   0.0000000000
H          H       0.48280   0.57608   0.03850   0.0000000000
H          H       0.96150   0.48280   0.42392   0.0000000000
H          H       0.96150   0.51720   0.57608   0.0000000000
H          H       0.03850   0.51720   0.42392   0.0000000000
H          H       0.03850   0.48280   0.57608   0.0000000000
H          H       0.42392   0.96150   0.48280   0.0000000000
H          H       0.57608   0.96150   0.51720   0.0000000000
H          H       0.42392   0.03850   0.51720   0.0000000000
H          H       0.57608   0.03850   0.48280   0.0000000000
H          H       0.42392   0.48280   0.96150   0.0000000000
H          H       0.57608   0.51720   0.96150   0.0000000000
H          H       0.42392   0.51720   0.03850   0.0000000000
H          H       0.57608   0.48280   0.03850   0.0000000000
H          H       0.48280   0.96150   0.42392   0.0000000000
H          H       0.51720   0.96150   0.57608   0.0000000000
H          H       0.51720   0.03850   0.42392   0.0000000000
H          H       0.48280   0.03850   0.57608   0.0000000000
H          H       0.96150   0.42392   0.48280   0.0000000000
H          H       0.96150   0.57608   0.51720   0.0000000000
H          H       0.03850   0.42392   0.51720   0.0000000000
H          H       0.03850   0.57608   0.48280   0.0000000000
H          H       0.38791   0.48112   0.09310   0.0000000000
H          H       0.61210   0.51888   0.09310   0.0000000000
H          H       0.61210   0.48112   0.90691   0.0000000000
H          H       0.38791   0.51888   0.90691   0.0000000000
H          H       0.09310   0.38791   0.48112   0.0000000000
H          H       0.09310   0.61210   0.51888   0.0000000000
H          H       0.90691   0.61210   0.48112   0.0000000000
H          H       0.90691   0.38791   0.51888   0.0000000000
H          H       0.48112   0.09310   0.38791   0.0000000000
H          H       0.51888   0.09310   0.61210   0.0000000000
H          H       0.48112   0.90691   0.61210   0.0000000000
H          H       0.51888   0.90691   0.38791   0.0000000000
H          H       0.48112   0.38791   0.09310   0.0000000000
H          H       0.51888   0.61210   0.09310   0.0000000000
H          H       0.48112   0.61210   0.90691   0.0000000000
H          H       0.51888   0.38791   0.90691   0.0000000000
H          H       0.38791   0.09310   0.48112   0.0000000000
H          H       0.61210   0.09310   0.51888   0.0000000000
H          H       0.61210   0.90691   0.48112   0.0000000000
H          H       0.38791   0.90691   0.51888   0.0000000000
H          H       0.09310   0.48112   0.38791   0.0000000000
H          H       0.09310   0.51888   0.61210   0.0000000000
H          H       0.90691   0.48112   0.61210   0.0000000000
H          H       0.90691   0.51888   0.38791   0.0000000000
C          C       0.50000   0.50000   0.00000   0.0000000000
C          C       0.00000   0.50000   0.50000   0.0000000000
C          C       0.50000   0.00000   0.50000   0.0000000000
C          C       0.63373   0.60287   0.18744   0.0000000000
C          C       0.66570   0.60294   0.21759   0.0000000000
C          C       0.69648   0.63364   0.27701   0.0000000000
C          C       0.66645   0.63472   0.24870   0.0000000000
H          H       0.68769   0.57970   0.21642   0.0000000000
C          C       0.36627   0.39713   0.18744   0.0000000000
C          C       0.33430   0.39706   0.21759   0.0000000000
C          C       0.30353   0.36636   0.27701   0.0000000000
C          C       0.33355   0.36528   0.24870   0.0000000000
H          H       0.31231   0.42030   0.21642   0.0000000000
C          C       0.36627   0.60287   0.81256   0.0000000000
C          C       0.33430   0.60294   0.78241   0.0000000000
C          C       0.30353   0.63364   0.72299   0.0000000000
C          C       0.33355   0.63472   0.75130   0.0000000000
H          H       0.31231   0.57970   0.78359   0.0000000000
C          C       0.63373   0.39713   0.81256   0.0000000000
C          C       0.66570   0.39706   0.78241   0.0000000000
C          C       0.69648   0.36636   0.72299   0.0000000000
C          C       0.66645   0.36528   0.75130   0.0000000000
H          H       0.68769   0.42030   0.78359   0.0000000000
C          C       0.18744   0.63373   0.60287   0.0000000000
C          C       0.21759   0.66570   0.60294   0.0000000000
C          C       0.27701   0.69648   0.63364   0.0000000000
C          C       0.24870   0.66645   0.63472   0.0000000000
H          H       0.21642   0.68769   0.57970   0.0000000000
C          C       0.18744   0.36627   0.39713   0.0000000000
C          C       0.21759   0.33430   0.39706   0.0000000000
C          C       0.27701   0.30353   0.36636   0.0000000000
C          C       0.24870   0.33355   0.36528   0.0000000000
H          H       0.21642   0.31231   0.42030   0.0000000000
C          C       0.81256   0.36627   0.60287   0.0000000000
C          C       0.78241   0.33430   0.60294   0.0000000000
C          C       0.72299   0.30353   0.63364   0.0000000000
C          C       0.75130   0.33355   0.63472   0.0000000000
H          H       0.78359   0.31231   0.57970   0.0000000000
C          C       0.81256   0.63373   0.39713   0.0000000000
C          C       0.78241   0.66570   0.39706   0.0000000000
C          C       0.72299   0.69648   0.36636   0.0000000000
C          C       0.75130   0.66645   0.36528   0.0000000000
H          H       0.78359   0.68769   0.42030   0.0000000000
C          C       0.60287   0.18744   0.63373   0.0000000000
C          C       0.60294   0.21759   0.66570   0.0000000000
C          C       0.63364   0.27701   0.69648   0.0000000000
C          C       0.63472   0.24870   0.66645   0.0000000000
H          H       0.57970   0.21642   0.68769   0.0000000000
C          C       0.39713   0.18744   0.36627   0.0000000000
C          C       0.39706   0.21759   0.33430   0.0000000000
C          C       0.36636   0.27701   0.30353   0.0000000000
C          C       0.36528   0.24870   0.33355   0.0000000000
H          H       0.42030   0.21642   0.31231   0.0000000000
C          C       0.60287   0.81256   0.36627   0.0000000000
C          C       0.60294   0.78241   0.33430   0.0000000000
C          C       0.63364   0.72299   0.30353   0.0000000000
C          C       0.63472   0.75130   0.33355   0.0000000000
H          H       0.57970   0.78359   0.31231   0.0000000000
C          C       0.39713   0.81256   0.63373   0.0000000000
C          C       0.39706   0.78241   0.66570   0.0000000000
C          C       0.36636   0.72299   0.69648   0.0000000000
C          C       0.36528   0.75130   0.66645   0.0000000000
H          H       0.42030   0.78359   0.68769   0.0000000000
C          C       0.60287   0.63373   0.18744   0.0000000000
C          C       0.60294   0.66570   0.21759   0.0000000000
C          C       0.63364   0.69648   0.27701   0.0000000000
C          C       0.63472   0.66645   0.24870   0.0000000000
H          H       0.57970   0.68769   0.21642   0.0000000000
C          C       0.39713   0.36627   0.18744   0.0000000000
C          C       0.39706   0.33430   0.21759   0.0000000000
C          C       0.36636   0.30353   0.27701   0.0000000000
C          C       0.36528   0.33355   0.24870   0.0000000000
H          H       0.42030   0.31231   0.21642   0.0000000000
C          C       0.60287   0.36627   0.81256   0.0000000000
C          C       0.60294   0.33430   0.78241   0.0000000000
C          C       0.63364   0.30353   0.72299   0.0000000000
C          C       0.63472   0.33355   0.75130   0.0000000000
H          H       0.57970   0.31231   0.78359   0.0000000000
C          C       0.39713   0.63373   0.81256   0.0000000000
C          C       0.39706   0.66570   0.78241   0.0000000000
C          C       0.36636   0.69648   0.72299   0.0000000000
C          C       0.36528   0.66645   0.75130   0.0000000000
H          H       0.42030   0.68769   0.78359   0.0000000000
C          C       0.63373   0.18744   0.60287   0.0000000000
C          C       0.66570   0.21759   0.60294   0.0000000000
C          C       0.69648   0.27701   0.63364   0.0000000000
C          C       0.66645   0.24870   0.63472   0.0000000000
H          H       0.68769   0.21642   0.57970   0.0000000000
C          C       0.36627   0.18744   0.39713   0.0000000000
C          C       0.33430   0.21759   0.39706   0.0000000000
C          C       0.30353   0.27701   0.36636   0.0000000000
C          C       0.33355   0.24870   0.36528   0.0000000000
H          H       0.31231   0.21642   0.42030   0.0000000000
C          C       0.36627   0.81256   0.60287   0.0000000000
C          C       0.33430   0.78241   0.60294   0.0000000000
C          C       0.30353   0.72299   0.63364   0.0000000000
C          C       0.33355   0.75130   0.63472   0.0000000000
H          H       0.31231   0.78359   0.57970   0.0000000000
C          C       0.63373   0.81256   0.39713   0.0000000000
C          C       0.66570   0.78241   0.39706   0.0000000000
C          C       0.69648   0.72299   0.36636   0.0000000000
C          C       0.66645   0.75130   0.36528   0.0000000000
H          H       0.68769   0.78359   0.42030   0.0000000000
C          C       0.18744   0.60287   0.63373   0.0000000000
C          C       0.21759   0.60294   0.66570   0.0000000000
C          C       0.27701   0.63364   0.69648   0.0000000000
C          C       0.24870   0.63472   0.66645   0.0000000000
H          H       0.21642   0.57970   0.68769   0.0000000000
C          C       0.18744   0.39713   0.36627   0.0000000000
C          C       0.21759   0.39706   0.33430   0.0000000000
C          C       0.27701   0.36636   0.30353   0.0000000000
C          C       0.24870   0.36528   0.33355   0.0000000000
H          H       0.21642   0.42030   0.31231   0.0000000000
C          C       0.81256   0.60287   0.36627   0.0000000000
C          C       0.78241   0.60294   0.33430   0.0000000000
C          C       0.72299   0.63364   0.30353   0.0000000000
C          C       0.75130   0.63472   0.33355   0.0000000000
H          H       0.78359   0.57970   0.31231   0.0000000000
C          C       0.81256   0.39713   0.63373   0.0000000000
C          C       0.78241   0.39706   0.66570   0.0000000000
C          C       0.72299   0.36636   0.69648   0.0000000000
C          C       0.75130   0.36528   0.66645   0.0000000000
H          H       0.78359   0.42030   0.68769   0.0000000000
O          O       0.62722   0.57530   0.15600   0.0000000000
O          O       0.37278   0.42471   0.15600   0.0000000000
O          O       0.37278   0.57530   0.84400   0.0000000000
O          O       0.62722   0.42471   0.84400   0.0000000000
O          O       0.15600   0.62722   0.57530   0.0000000000
O          O       0.15600   0.37278   0.42471   0.0000000000
O          O       0.84400   0.37278   0.57530   0.0000000000
O          O       0.84400   0.62722   0.42471   0.0000000000
O          O       0.57530   0.15600   0.62722   0.0000000000
O          O       0.42471   0.15600   0.37278   0.0000000000
O          O       0.57530   0.84400   0.37278   0.0000000000
O          O       0.42471   0.84400   0.62722   0.0000000000
O          O       0.57530   0.62722   0.15600   0.0000000000
O          O       0.42471   0.37278   0.15600   0.0000000000
O          O       0.57530   0.37278   0.84400   0.0000000000
O          O       0.42471   0.62722   0.84400   0.0000000000
O          O       0.62722   0.15600   0.57530   0.0000000000
O          O       0.37278   0.15600   0.42471   0.0000000000
O          O       0.37278   0.84400   0.57530   0.0000000000
O          O       0.62722   0.84400   0.42471   0.0000000000
O          O       0.15600   0.57530   0.62722   0.0000000000
O          O       0.15600   0.42471   0.37278   0.0000000000
O          O       0.84400   0.57530   0.37278   0.0000000000
O          O       0.84400   0.42471   0.62722   0.0000000000
B          B       0.58974   0.58974   0.13515   0.0000000000
B          B       0.86485   0.58974   0.41026   0.0000000000
B          B       0.58974   0.86485   0.41026   0.0000000000
B          B       0.41026   0.41026   0.13515   0.0000000000
B          B       0.13515   0.41026   0.41026   0.0000000000
B          B       0.41026   0.13515   0.41026   0.0000000000
B          B       0.41026   0.58974   0.86485   0.0000000000
B          B       0.13515   0.58974   0.58974   0.0000000000
B          B       0.41026   0.86485   0.58974   0.0000000000
B          B       0.58974   0.41026   0.86485   0.0000000000
B          B       0.86485   0.41026   0.58974   0.0000000000
B          B       0.58974   0.13515   0.58974   0.0000000000
Ni         Ni      0.31585   0.68416   0.68416   0.0000000000
Ni         Ni      0.68416   0.31585   0.68416   0.0000000000
Ni         Ni      0.68416   0.68416   0.31585   0.0000000000
Ni         Ni      0.31585   0.31585   0.31585   0.0000000000
