data_crystal
 
_cell_length_a    25.46900
_cell_length_b    25.46900
_cell_length_c    3.52600
_cell_angle_alpha 90.00000
_cell_angle_beta  90.00000
_cell_angle_gamma 120.00000
 
_symmetry_space_group_name_Hall 'P 1'
_symmetry_space_group_name_H-M  'P 1'
 
loop_
_symmetry_equiv_pos_as_xyz
 'x,y,z' 
 
loop_
_atom_site_label
_atom_site_type_symbol
_atom_site_fract_x
_atom_site_fract_y
_atom_site_fract_z
_atom_site_charge
C          C       0.49837   0.38066   0.50000   0.0000000000
C          C       0.53479   0.35431   0.50000   0.0000000000
C          C       0.59799   0.39059   0.50000   0.0000000000
C          C       0.62473   0.45408   0.50000   0.0000000000
C          C       0.58808   0.48084   0.50000   0.0000000000
C          C       0.52512   0.44415   0.50000   0.0000000000
N          N       0.48847   0.47089   0.50000   0.0000000000
C          C       0.40489   0.61372   0.50000   0.0000000000
C          C       0.46828   0.65045   0.50000   0.0000000000
C          C       0.37834   0.55068   0.50000   0.0000000000
C          C       0.50492   0.62369   0.50000   0.0000000000
C          C       0.41499   0.52394   0.50000   0.0000000000
C          C       0.47837   0.56066   0.50000   0.0000000000
C          C       0.51279   0.53161   0.50000   0.0000000000
H          H       0.44668   0.35066   0.50000   0.0000000000
H          H       0.51310   0.30262   0.50000   0.0000000000
H          H       0.67642   0.48401   0.50000   0.0000000000
H          H       0.60990   0.53253   0.50000   0.0000000000
H          H       0.49002   0.70214   0.50000   0.0000000000
H          H       0.32665   0.52075   0.50000   0.0000000000
H          H       0.55662   0.65358   0.50000   0.0000000000
H          H       0.39318   0.47224   0.50000   0.0000000000
H          H       0.56464   0.55972   0.50000   0.0000000000
H          H       0.71979   0.44721   0.50000   0.0000000000
B          B       0.36975   0.63985   0.50000   0.0000000000
O          O       0.30865   0.60497   0.50000   0.0000000000
C          C       0.63451   0.36338   0.50000   0.0000000000
C          C       0.69781   0.39767   0.50000   0.0000000000
C          C       0.61934   0.11771   0.50000   0.0000000000
C          C       0.64569   0.18048   0.50000   0.0000000000
C          C       0.60941   0.20740   0.50000   0.0000000000
C          C       0.54592   0.17065   0.50000   0.0000000000
C          C       0.51916   0.10724   0.50000   0.0000000000
C          C       0.55585   0.08097   0.50000   0.0000000000
N          N       0.52911   0.01758   0.50000   0.0000000000
C          C       0.38628   0.79117   0.50000   0.0000000000
C          C       0.34955   0.81783   0.50000   0.0000000000
C          C       0.44932   0.82766   0.50000   0.0000000000
C          C       0.37631   0.88123   0.50000   0.0000000000
C          C       0.47606   0.89105   0.50000   0.0000000000
C          C       0.43934   0.91771   0.50000   0.0000000000
C          C       0.46839   0.98118   0.50000   0.0000000000
H          H       0.64934   0.09602   0.50000   0.0000000000
H          H       0.69738   0.21048   0.50000   0.0000000000
H          H       0.51599   0.19241   0.50000   0.0000000000
H          H       0.46747   0.07737   0.50000   0.0000000000
H          H       0.29786   0.78788   0.50000   0.0000000000
H          H       0.47925   0.80590   0.50000   0.0000000000
H          H       0.34642   0.90304   0.50000   0.0000000000
H          H       0.52776   0.92094   0.50000   0.0000000000
H          H       0.44028   0.00492   0.50000   0.0000000000
H          H       0.55279   0.27258   0.50000   0.0000000000
B          B       0.36015   0.72990   0.50000   0.0000000000
O          O       0.39503   0.70368   0.50000   0.0000000000
C          C       0.63662   0.27113   0.50000   0.0000000000
C          C       0.60233   0.30014   0.50000   0.0000000000
C          C       0.88229   0.50163   0.50000   0.0000000000
C          C       0.81952   0.46521   0.50000   0.0000000000
C          C       0.79260   0.40201   0.50000   0.0000000000
C          C       0.82935   0.37527   0.50000   0.0000000000
C          C       0.89276   0.41192   0.50000   0.0000000000
C          C       0.91903   0.47488   0.50000   0.0000000000
N          N       0.98242   0.51153   0.50000   0.0000000000
C          C       0.20883   0.59511   0.50000   0.0000000000
C          C       0.18217   0.53172   0.50000   0.0000000000
C          C       0.17234   0.62166   0.50000   0.0000000000
C          C       0.11877   0.49508   0.50000   0.0000000000
C          C       0.10895   0.58501   0.50000   0.0000000000
C          C       0.08229   0.52163   0.50000   0.0000000000
C          C       0.01882   0.48721   0.50000   0.0000000000
H          H       0.90398   0.55332   0.50000   0.0000000000
H          H       0.78952   0.48690   0.50000   0.0000000000
H          H       0.80759   0.32358   0.50000   0.0000000000
H          H       0.92263   0.39010   0.50000   0.0000000000
H          H       0.21212   0.50998   0.50000   0.0000000000
H          H       0.19410   0.67335   0.50000   0.0000000000
H          H       0.09696   0.44338   0.50000   0.0000000000
H          H       0.07906   0.60682   0.50000   0.0000000000
H          H       0.99508   0.43536   0.50000   0.0000000000
H          H       0.72742   0.28021   0.50000   0.0000000000
B          B       0.27010   0.63025   0.50000   0.0000000000
O          O       0.29632   0.69135   0.50000   0.0000000000
C          C       0.72887   0.36549   0.50000   0.0000000000
C          C       0.69986   0.30219   0.50000   0.0000000000
