data_AEM-COF-2
_audit_creation_date              0000-00-00
_audit_creation_method            'LanYouShi'
_symmetry_space_group_name_H-M    'P1'
_cell_length_a                    40.9350014
_cell_length_b                    40.9350014
_cell_length_c                    3.2570000
_cell_angle_alpha                 90.0000000
_cell_angle_beta                  90.0000000
_cell_angle_gamma                 120.0000000
loop_
_atom_site_label
_atom_site_type_symbol
_atom_site_fract_x
_atom_site_fract_y
_atom_site_fract_z
_atom_site_U_iso_or_equiv
_atom_site_adp_type
_atom_site_occupancy
        H1          H  0.0368400  0.5710300  0.0000000    0.00000       Uiso       1.00
        C1          C  0.0190700  0.5404800  0.0000000    0.00000       Uiso       1.00
        O1          O  0.0949100  0.5761800  0.0000000    0.00000       Uiso       1.00
        C2          C  0.1302300  0.5816000  0.0000000    0.00000       Uiso       1.00
        C3          C  0.1616300  0.6163200  0.0000000    0.00000       Uiso       1.00
        C4          C  0.1565600  0.6477900  0.0000000    0.00000       Uiso       1.00
        H2          H  0.1281000  0.6434300  0.0000000    0.00000       Uiso       1.00
        C5          C  0.1882400  0.6819700  0.0000000    0.00000       Uiso       1.00
        H3          H  0.1885900  0.7087000  0.0000000    0.00000       Uiso       1.00
        C6          C  0.2226600  0.6821600  0.0000000    0.00000       Uiso       1.00
        C7          C  0.2543900  0.7164100  0.0000000    0.00000       Uiso       1.00
        C8          C  0.4197700  0.6156000  0.0000000    0.00000       Uiso       1.00
        C9          C  0.3491100  0.5767200  0.0000000    0.00000       Uiso       1.00
        H4          H  0.4289700  0.4658100  0.0000000    0.00000       Uiso       1.00
       C10          C  0.4595200  0.4785900  0.0000000    0.00000       Uiso       1.00
        O2          O  0.4238200  0.5187300  0.0000000    0.00000       Uiso       1.00
       C11          C  0.4184000  0.5486300  0.0000000    0.00000       Uiso       1.00
       C12          C  0.3836800  0.5453100  0.0000000    0.00000       Uiso       1.00
       C13          C  0.3522100  0.5087700  0.0000000    0.00000       Uiso       1.00
        H5          H  0.3565700  0.4846700  0.0000000    0.00000       Uiso       1.00
       C14          C  0.3180300  0.5062700  0.0000000    0.00000       Uiso       1.00
        H6          H  0.2913000  0.4798900  0.0000000    0.00000       Uiso       1.00
       C15          C  0.3178400  0.5405000  0.0000000    0.00000       Uiso       1.00
       C16          C  0.2835900  0.5379800  0.0000000    0.00000       Uiso       1.00
       C17          C  0.3844000  0.8041700  0.0000000    0.00000       Uiso       1.00
       C18          C  0.4232800  0.7723900  0.0000000    0.00000       Uiso       1.00
        H7          H  0.5341900  0.9631600  0.0000000    0.00000       Uiso       1.00
       C19          C  0.5214100  0.9809300  0.0000000    0.00000       Uiso       1.00
        O3          O  0.4812700  0.9050900  0.0000000    0.00000       Uiso       1.00
       C20          C  0.4513700  0.8697700  0.0000000    0.00000       Uiso       1.00
       C21          C  0.4546900  0.8383700  0.0000000    0.00000       Uiso       1.00
       C22          C  0.4912300  0.8434400  0.0000000    0.00000       Uiso       1.00
        H8          H  0.5153300  0.8719000  0.0000000    0.00000       Uiso       1.00
       C23          C  0.4937300  0.8117599  0.0000000    0.00000       Uiso       1.00
        H9          H  0.5201100  0.8114100  0.0000000    0.00000       Uiso       1.00
       C24          C  0.4595000  0.7773399  0.0000000    0.00000       Uiso       1.00
       C25          C  0.4620200  0.7456100  0.0000000    0.00000       Uiso       1.00
       C26          C  0.1958300  0.5802299  0.0000000    0.00000       Uiso       1.00
       C27          C  0.2276100  0.6508900  0.0000000    0.00000       Uiso       1.00
       H10          H  0.9631600  0.4289700  0.0000000    0.00000       Uiso       1.00
       C28          C  0.9809300  0.4595200  0.0000000    0.00000       Uiso       1.00
        O4          O  0.9050900  0.4238200  0.0000000    0.00000       Uiso       1.00
       C29          C  0.8697700  0.4184000  0.0000000    0.00000       Uiso       1.00
       C30          C  0.8383700  0.3836800  0.0000000    0.00000       Uiso       1.00
       C31          C  0.8434400  0.3522100  0.0000000    0.00000       Uiso       1.00
       H11          H  0.8719000  0.3565700  0.0000000    0.00000       Uiso       1.00
       C32          C  0.8117599  0.3180300  0.0000000    0.00000       Uiso       1.00
       H12          H  0.8114100  0.2913000  0.0000000    0.00000       Uiso       1.00
       C33          C  0.7773400  0.3178400  0.0000000    0.00000       Uiso       1.00
       C34          C  0.7456100  0.2835900  0.0000000    0.00000       Uiso       1.00
       C35          C  0.5802300  0.3844000  0.0000000    0.00000       Uiso       1.00
       C36          C  0.6508900  0.4232800  0.0000000    0.00000       Uiso       1.00
       H13          H  0.5710300  0.5341899  0.0000000    0.00000       Uiso       1.00
       C37          C  0.5404800  0.5214100  0.0000000    0.00000       Uiso       1.00
        O5          O  0.5761800  0.4812700  0.0000000    0.00000       Uiso       1.00
       C38          C  0.5816000  0.4513700  0.0000000    0.00000       Uiso       1.00
       C39          C  0.6163200  0.4546899  0.0000000    0.00000       Uiso       1.00
       C40          C  0.6477900  0.4912300  0.0000000    0.00000       Uiso       1.00
       H14          H  0.6434300  0.5153300  0.0000000    0.00000       Uiso       1.00
       C41          C  0.6819700  0.4937300  0.0000000    0.00000       Uiso       1.00
       H15          H  0.7087000  0.5201100  0.0000000    0.00000       Uiso       1.00
       C42          C  0.6821600  0.4595000  0.0000000    0.00000       Uiso       1.00
       C43          C  0.7164100  0.4620200  0.0000000    0.00000       Uiso       1.00
       C44          C  0.6156000  0.1958300  0.0000000    0.00000       Uiso       1.00
       C45          C  0.5767199  0.2276100  0.0000000    0.00000       Uiso       1.00
       H16          H  0.4658100  0.0368400  0.0000000    0.00000       Uiso       1.00
       C46          C  0.4785900  0.0190700  0.0000000    0.00000       Uiso       1.00
        O6          O  0.5187300  0.0949100  0.0000000    0.00000       Uiso       1.00
       C47          C  0.5486300  0.1302300  0.0000000    0.00000       Uiso       1.00
       C48          C  0.5453100  0.1616300  0.0000000    0.00000       Uiso       1.00
       C49          C  0.5087700  0.1565600  0.0000000    0.00000       Uiso       1.00
       H17          H  0.4846700  0.1281000  0.0000000    0.00000       Uiso       1.00
       C50          C  0.5062700  0.1882400  0.0000000    0.00000       Uiso       1.00
       H18          H  0.4798900  0.1885900  0.0000000    0.00000       Uiso       1.00
       C51          C  0.5405000  0.2226600  0.0000000    0.00000       Uiso       1.00
       C52          C  0.5379800  0.2543900  0.0000000    0.00000       Uiso       1.00
       C53          C  0.8041700  0.4197700  0.0000000    0.00000       Uiso       1.00
       C54          C  0.7723899  0.3491100  0.0000000    0.00000       Uiso       1.00
       H19          H  0.5710300  0.0368400  0.0000000    0.00000       Uiso       1.00
       C55          C  0.5404800  0.0190700  0.0000000    0.00000       Uiso       1.00
        O7          O  0.5761800  0.0949100  0.0000000    0.00000       Uiso       1.00
       C56          C  0.5816000  0.1302300  0.0000000    0.00000       Uiso       1.00
       C57          C  0.6163200  0.1616300  0.0000000    0.00000       Uiso       1.00
       C58          C  0.6477900  0.1565600  0.0000000    0.00000       Uiso       1.00
       H20          H  0.6434300  0.1281000  0.0000000    0.00000       Uiso       1.00
       C59          C  0.6819700  0.1882400  0.0000000    0.00000       Uiso       1.00
       H21          H  0.7087000  0.1885900  0.0000000    0.00000       Uiso       1.00
       C60          C  0.6821600  0.2226600  0.0000000    0.00000       Uiso       1.00
       C61          C  0.7164100  0.2543900  0.0000000    0.00000       Uiso       1.00
       C62          C  0.6156000  0.4197700  0.0000000    0.00000       Uiso       1.00
       C63          C  0.5767199  0.3491100  0.0000000    0.00000       Uiso       1.00
       H22          H  0.4658100  0.4289700  0.0000000    0.00000       Uiso       1.00
       C64          C  0.4785900  0.4595200  0.0000000    0.00000       Uiso       1.00
        O8          O  0.5187300  0.4238200  0.0000000    0.00000       Uiso       1.00
       C65          C  0.5486300  0.4184000  0.0000000    0.00000       Uiso       1.00
       C66          C  0.5453100  0.3836800  0.0000000    0.00000       Uiso       1.00
       C67          C  0.5087700  0.3522100  0.0000000    0.00000       Uiso       1.00
       H23          H  0.4846700  0.3565700  0.0000000    0.00000       Uiso       1.00
       C68          C  0.5062700  0.3180300  0.0000000    0.00000       Uiso       1.00
       H24          H  0.4798900  0.2913000  0.0000000    0.00000       Uiso       1.00
       C69          C  0.5405000  0.3178400  0.0000000    0.00000       Uiso       1.00
       C70          C  0.5379800  0.2835900  0.0000000    0.00000       Uiso       1.00
       C71          C  0.8041700  0.3844000  0.0000000    0.00000       Uiso       1.00
       C72          C  0.7723900  0.4232800  0.0000000    0.00000       Uiso       1.00
       H25          H  0.9631600  0.5341899  0.0000000    0.00000       Uiso       1.00
       C73          C  0.9809300  0.5214100  0.0000000    0.00000       Uiso       1.00
        O9          O  0.9050900  0.4812700  0.0000000    0.00000       Uiso       1.00
       C74          C  0.8697700  0.4513700  0.0000000    0.00000       Uiso       1.00
       C75          C  0.8383700  0.4546899  0.0000000    0.00000       Uiso       1.00
       C76          C  0.8434400  0.4912300  0.0000000    0.00000       Uiso       1.00
       H26          H  0.8719000  0.5153300  0.0000000    0.00000       Uiso       1.00
       C77          C  0.8117600  0.4937300  0.0000000    0.00000       Uiso       1.00
       H27          H  0.8114100  0.5201100  0.0000000    0.00000       Uiso       1.00
       C78          C  0.7773399  0.4595000  0.0000000    0.00000       Uiso       1.00
       C79          C  0.7456100  0.4620200  0.0000000    0.00000       Uiso       1.00
       C80          C  0.5802300  0.1958300  0.0000000    0.00000       Uiso       1.00
       C81          C  0.6508900  0.2276100  0.0000000    0.00000       Uiso       1.00
       H28          H  0.4289700  0.9631600  0.0000000    0.00000       Uiso       1.00
       C82          C  0.4595200  0.9809300  0.0000000    0.00000       Uiso       1.00
       O10          O  0.4238200  0.9050900  0.0000000    0.00000       Uiso       1.00
       C83          C  0.4184000  0.8697700  0.0000000    0.00000       Uiso       1.00
       C84          C  0.3836800  0.8383700  0.0000000    0.00000       Uiso       1.00
       C85          C  0.3522100  0.8434400  0.0000000    0.00000       Uiso       1.00
       H29          H  0.3565700  0.8719000  0.0000000    0.00000       Uiso       1.00
       C86          C  0.3180300  0.8117599  0.0000000    0.00000       Uiso       1.00
       H30          H  0.2913000  0.8114100  0.0000000    0.00000       Uiso       1.00
       C87          C  0.3178400  0.7773399  0.0000000    0.00000       Uiso       1.00
       C88          C  0.2835900  0.7456100  0.0000000    0.00000       Uiso       1.00
       C89          C  0.3844000  0.5802299  0.0000000    0.00000       Uiso       1.00
       C90          C  0.4232800  0.6508900  0.0000000    0.00000       Uiso       1.00
       H31          H  0.5341900  0.5710300  0.0000000    0.00000       Uiso       1.00
       C91          C  0.5214100  0.5404800  0.0000000    0.00000       Uiso       1.00
       O11          O  0.4812700  0.5761800  0.0000000    0.00000       Uiso       1.00
       C92          C  0.4513700  0.5816000  0.0000000    0.00000       Uiso       1.00
       C93          C  0.4546900  0.6163200  0.0000000    0.00000       Uiso       1.00
       C94          C  0.4912300  0.6477900  0.0000000    0.00000       Uiso       1.00
       H32          H  0.5153300  0.6434300  0.0000000    0.00000       Uiso       1.00
       C95          C  0.4937300  0.6819700  0.0000000    0.00000       Uiso       1.00
       H33          H  0.5201100  0.7087000  0.0000000    0.00000       Uiso       1.00
       C96          C  0.4595000  0.6821600  0.0000000    0.00000       Uiso       1.00
       C97          C  0.4620200  0.7164100  0.0000000    0.00000       Uiso       1.00
       C98          C  0.1958300  0.6156000  0.0000000    0.00000       Uiso       1.00
       C99          C  0.2276100  0.5767200  0.0000000    0.00000       Uiso       1.00
       H34          H  0.0368400  0.4658100  0.0000000    0.00000       Uiso       1.00
      C100          C  0.0190700  0.4785900  0.0000000    0.00000       Uiso       1.00
       O12          O  0.0949100  0.5187300  0.0000000    0.00000       Uiso       1.00
      C101          C  0.1302300  0.5486300  0.0000000    0.00000       Uiso       1.00
      C102          C  0.1616300  0.5453100  0.0000000    0.00000       Uiso       1.00
      C103          C  0.1565600  0.5087700  0.0000000    0.00000       Uiso       1.00
       H35          H  0.1281000  0.4846700  0.0000000    0.00000       Uiso       1.00
      C104          C  0.1882400  0.5062700  0.0000000    0.00000       Uiso       1.00
       H36          H  0.1885900  0.4798900  0.0000000    0.00000       Uiso       1.00
      C105          C  0.2226600  0.5405000  0.0000000    0.00000       Uiso       1.00
      C106          C  0.2543900  0.5379800  0.0000000    0.00000       Uiso       1.00
      C107          C  0.4197700  0.8041700  0.0000000    0.00000       Uiso       1.00
      C108          C  0.3491100  0.7723900  0.0000000    0.00000       Uiso       1.00
      C109          C  0.0349700  0.5174850  0.0000000    0.00000       Uiso       1.00
        B1          B  0.0750300  0.5375150  0.0000000    0.00000       Uiso       1.00
      C110          C  0.4825150  0.5174850  0.0000000    0.00000       Uiso       1.00
        B2          B  0.4624850  0.5375150  0.0000000    0.00000       Uiso       1.00
      C111          C  0.4825150  0.9650300  0.0000000    0.00000       Uiso       1.00
        B3          B  0.4624850  0.9249699  0.0000000    0.00000       Uiso       1.00
      C112          C  0.9650300  0.4825150  0.0000000    0.00000       Uiso       1.00
        B4          B  0.9249700  0.4624850  0.0000000    0.00000       Uiso       1.00
      C113          C  0.5174850  0.4825150  0.0000000    0.00000       Uiso       1.00
        B5          B  0.5375150  0.4624850  0.0000000    0.00000       Uiso       1.00
      C114          C  0.5174850  0.0349700  0.0000000    0.00000       Uiso       1.00
        B6          B  0.5375150  0.0750300  0.0000000    0.00000       Uiso       1.00
       H37          H  0.3993600  0.6555700  0.0000000    0.00000       Uiso       1.00
       H38          H  0.3444300  0.7437900  0.0000000    0.00000       Uiso       1.00
       H39          H  0.2562100  0.6006400  0.0000000    0.00000       Uiso       1.00
       H40          H  0.6006399  0.3444300  0.0000000    0.00000       Uiso       1.00
       H41          H  0.6555700  0.2562100  0.0000000    0.00000       Uiso       1.00
       H42          H  0.7437900  0.3993600  0.0000000    0.00000       Uiso       1.00
       H43          H  0.6555700  0.3993600  0.0000000    0.00000       Uiso       1.00
       H44          H  0.7437900  0.3444300  0.0000000    0.00000       Uiso       1.00
       H45          H  0.6006400  0.2562100  0.0000000    0.00000       Uiso       1.00
       H46          H  0.3444300  0.6006400  0.0000000    0.00000       Uiso       1.00
       H47          H  0.2562100  0.6555700  0.0000000    0.00000       Uiso       1.00
       H48          H  0.3993600  0.7437900  0.0000000    0.00000       Uiso       1.00
