data_crystal

_cell_length_a    44.55240
_cell_length_b    44.55240
_cell_length_c    7.03000
_cell_angle_alpha 90.00000
_cell_angle_beta  90.00000
_cell_angle_gamma 120.00000

_space_group_name_Hall 'P 1'
_space_group_name_H-M_alt  'P 1'

loop_
_symmetry_equiv_pos_as_xyz
'x,y,z' 

loop_
_atom_site_label
_atom_site_type_symbol
_atom_site_fract_x
_atom_site_fract_y
_atom_site_fract_z
C          C       0.44503   0.49972   0.00000 
C          C       0.42702   0.51829   0.00000 
C          C       0.42708   0.46315   0.00000 
H          H       0.40047   0.50502   0.00000 
H          H       0.40055   0.44942   0.00000 
C          C       0.38303   0.79736   0.00000 
C          C       0.35122   0.76623   0.00000 
C          C       0.32113   0.70568   0.00000 
C          C       0.29432   0.67887   0.00000 
C          C       0.35116   0.73441   0.00000 
H          H       0.32872   0.76718   0.00000 
O          O       0.38867   0.83006   0.00000 
C          C       0.53709   0.51814   0.00000 
C          C       0.55510   0.49956   0.00000 
C          C       0.55504   0.55471   0.00000 
H          H       0.58165   0.51283   0.00000 
H          H       0.58156   0.56844   0.00000 
C          C       0.59911   0.16691   0.00000 
C          C       0.63091   0.19804   0.00000 
C          C       0.66106   0.25856   0.00000 
C          C       0.68814   0.28507   0.00000 
C          C       0.63099   0.22988   0.00000 
H          H       0.65341   0.19708   0.00000 
O          O       0.59348   0.13421   0.00000 
C          C       0.48185   0.46290   0.00000 
C          C       0.50042   0.44489   0.00000 
C          C       0.44528   0.44495   0.00000 
H          H       0.48715   0.41834   0.00000 
H          H       0.43155   0.41842   0.00000 
C          C       0.83309   0.40090   0.00000 
C          C       0.80196   0.36910   0.00000 
C          C       0.74144   0.33895   0.00000 
C          C       0.71493   0.31186   0.00000 
C          C       0.77012   0.36902   0.00000 
H          H       0.80292   0.34660   0.00000 
O          O       0.86579   0.40653   0.00000 
C          C       0.50027   0.55496   0.00000 
C          C       0.48169   0.57297   0.00000 
C          C       0.53684   0.57291   0.00000 
H          H       0.49496   0.59952   0.00000 
H          H       0.55057   0.59943   0.00000 
C          C       0.20264   0.61698   0.00000 
C          C       0.23377   0.64878   0.00000 
C          C       0.26559   0.64885   0.00000 
H          H       0.23282   0.67129   0.00000 
O          O       0.16994   0.61135   0.00000 
B          B       0.42587   0.85173   0.00000 
B          B       0.55627   0.11253   0.00000 
C          C       0.44514   0.55485   0.00000 
C          C       0.48185   0.51814   0.00000 
C          C       0.53698   0.46301   0.00000 
C          C       0.50027   0.49972   0.00000 
C          C       0.50028   0.94531   0.00000 
C          C       0.48171   0.90873   0.00000 
C          C       0.53685   0.96393   0.00000 
H          H       0.49498   0.89545   0.00000 
H          H       0.55058   0.95113   0.00000 
C          C       0.20264   0.58567   0.00000 
C          C       0.23377   0.58499   0.00000 
C          C       0.29432   0.61545   0.00000 
C          C       0.32113   0.61545   0.00000 
C          C       0.26559   0.61675   0.00000 
H          H       0.23282   0.56154   0.00000 
O          O       0.16994   0.55861   0.00000 
C          C       0.48186   0.01896   0.00000 
C          C       0.50044   0.05554   0.00000 
C          C       0.44529   0.00034   0.00000 
H          H       0.48717   0.06881   0.00000 
H          H       0.43156   0.01313   0.00000 
C          C       0.83309   0.43220   0.00000 
C          C       0.80196   0.43287   0.00000 
C          C       0.74144   0.40249   0.00000 
C          C       0.71493   0.40307   0.00000 
C          C       0.77012   0.40111   0.00000 
H          H       0.80292   0.45633   0.00000 
O          O       0.86579   0.45927   0.00000 
C          C       0.53710   0.01896   0.00000 
C          C       0.55511   0.05554   0.00000 
C          C       0.55505   0.00034   0.00000 
H          H       0.58166   0.06881   0.00000 
H          H       0.58158   0.01313   0.00000 
C          C       0.59910   0.43219   0.00000 
C          C       0.63090   0.43286   0.00000 
C          C       0.66105   0.40249   0.00000 
C          C       0.68814   0.40307   0.00000 
C          C       0.63098   0.40110   0.00000 
H          H       0.65340   0.45632   0.00000 
O          O       0.59347   0.45926   0.00000 
C          C       0.44504   0.94531   0.00000 
C          C       0.42703   0.90873   0.00000 
C          C       0.42709   0.96393   0.00000 
H          H       0.40048   0.89545   0.00000 
H          H       0.40057   0.95114   0.00000 
C          C       0.38302   0.58567   0.00000 
C          C       0.35122   0.58499   0.00000 
C          C       0.35115   0.61674   0.00000 
H          H       0.32871   0.56153   0.00000 
O          O       0.38865   0.55860   0.00000 
B          B       0.14827   0.57414   0.00000 
B          B       0.88747   0.44374   0.00000 
C          C       0.44515   0.89029   0.00000 
C          C       0.48186   0.96371   0.00000 
C          C       0.53699   0.07397   0.00000 
C          C       0.50028   0.00055   0.00000 
C          C       0.05469   0.55497   0.00000 
C          C       0.09127   0.57298   0.00000 
C          C       0.03607   0.57292   0.00000 
H          H       0.10455   0.59953   0.00000 
H          H       0.04886   0.59945   0.00000 
C          C       0.41433   0.61697   0.00000 
C          C       0.41501   0.64878   0.00000 
C          C       0.38455   0.67887   0.00000 
C          C       0.38455   0.70568   0.00000 
C          C       0.38325   0.64884   0.00000 
H          H       0.43846   0.67128   0.00000 
O          O       0.44139   0.61133   0.00000 
C          C       0.98104   0.46291   0.00000 
C          C       0.94446   0.44490   0.00000 
C          C       0.99966   0.44496   0.00000 
H          H       0.93119   0.41835   0.00000 
H          H       0.98687   0.41844   0.00000 
C          C       0.56780   0.40089   0.00000 
C          C       0.56713   0.36909   0.00000 
C          C       0.59751   0.33894   0.00000 
C          C       0.59693   0.31186   0.00000 
C          C       0.59889   0.36901   0.00000 
H          H       0.54367   0.34659   0.00000 
O          O       0.54073   0.40652   0.00000 
C          C       0.98104   0.51815   0.00000 
C          C       0.94446   0.49958   0.00000 
C          C       0.99966   0.55472   0.00000 
H          H       0.93119   0.51285   0.00000 
H          H       0.98687   0.56845   0.00000 
C          C       0.56781   0.16691   0.00000 
C          C       0.56714   0.19804   0.00000 
C          C       0.59751   0.25856   0.00000 
C          C       0.59693   0.28507   0.00000 
C          C       0.59890   0.22988   0.00000 
H          H       0.54368   0.19708   0.00000 
O          O       0.54074   0.13421   0.00000 
C          C       0.05469   0.49973   0.00000 
C          C       0.09127   0.51831   0.00000 
C          C       0.03607   0.46316   0.00000 
H          H       0.10455   0.50503   0.00000 
H          H       0.04886   0.44943   0.00000 
C          C       0.41433   0.79736   0.00000 
C          C       0.41501   0.76623   0.00000 
C          C       0.38326   0.73441   0.00000 
H          H       0.43847   0.76718   0.00000 
O          O       0.44140   0.83006   0.00000 
B          B       0.42586   0.57413   0.00000 
B          B       0.55626   0.44373   0.00000 
C          C       0.10971   0.55486   0.00000 
C          C       0.03629   0.51815   0.00000 
C          C       0.92603   0.46302   0.00000 
C          C       0.99945   0.49973   0.00000 
C          C       0.44503   0.49972   0.50000 
C          C       0.42702   0.51829   0.50000 
C          C       0.42708   0.46315   0.50000 
H          H       0.40047   0.50502   0.50000 
H          H       0.40055   0.44942   0.50000 
C          C       0.38303   0.79736   0.50000 
C          C       0.35122   0.76623   0.50000 
C          C       0.32113   0.70568   0.50000 
C          C       0.29432   0.67887   0.50000 
C          C       0.35116   0.73441   0.50000 
H          H       0.32872   0.76718   0.50000 
O          O       0.38867   0.83006   0.50000 
C          C       0.53709   0.51814   0.50000 
C          C       0.55510   0.49956   0.50000 
C          C       0.55504   0.55471   0.50000 
H          H       0.58165   0.51283   0.50000 
H          H       0.58156   0.56844   0.50000 
C          C       0.59911   0.16691   0.50000 
C          C       0.63091   0.19804   0.50000 
C          C       0.66106   0.25856   0.50000 
C          C       0.68814   0.28507   0.50000 
C          C       0.63099   0.22988   0.50000 
H          H       0.65341   0.19708   0.50000 
O          O       0.59348   0.13421   0.50000 
C          C       0.48185   0.46290   0.50000 
C          C       0.50042   0.44489   0.50000 
C          C       0.44528   0.44495   0.50000 
H          H       0.48715   0.41834   0.50000 
H          H       0.43155   0.41842   0.50000 
C          C       0.83309   0.40090   0.50000 
C          C       0.80196   0.36910   0.50000 
C          C       0.74144   0.33895   0.50000 
C          C       0.71493   0.31186   0.50000 
C          C       0.77012   0.36902   0.50000 
H          H       0.80292   0.34660   0.50000 
O          O       0.86579   0.40653   0.50000 
C          C       0.50027   0.55496   0.50000 
C          C       0.48169   0.57297   0.50000 
C          C       0.53684   0.57291   0.50000 
H          H       0.49496   0.59952   0.50000 
H          H       0.55057   0.59943   0.50000 
C          C       0.20264   0.61698   0.50000 
C          C       0.23377   0.64878   0.50000 
C          C       0.26559   0.64885   0.50000 
H          H       0.23282   0.67129   0.50000 
O          O       0.16994   0.61135   0.50000 
B          B       0.42587   0.85173   0.50000 
B          B       0.55627   0.11253   0.50000 
C          C       0.44514   0.55485   0.50000 
C          C       0.48185   0.51814   0.50000 
C          C       0.53698   0.46301   0.50000 
C          C       0.50027   0.49972   0.50000 
C          C       0.50028   0.94531   0.50000 
C          C       0.48171   0.90873   0.50000 
C          C       0.53685   0.96393   0.50000 
H          H       0.49498   0.89545   0.50000 
H          H       0.55058   0.95113   0.50000 
C          C       0.20264   0.58567   0.50000 
C          C       0.23377   0.58499   0.50000 
C          C       0.29432   0.61545   0.50000 
C          C       0.32113   0.61545   0.50000 
C          C       0.26559   0.61675   0.50000 
H          H       0.23282   0.56154   0.50000 
O          O       0.16994   0.55861   0.50000 
C          C       0.48186   0.01896   0.50000 
C          C       0.50044   0.05554   0.50000 
C          C       0.44529   0.00034   0.50000 
H          H       0.48717   0.06881   0.50000 
H          H       0.43156   0.01313   0.50000 
C          C       0.83309   0.43220   0.50000 
C          C       0.80196   0.43287   0.50000 
C          C       0.74144   0.40249   0.50000 
C          C       0.71493   0.40307   0.50000 
C          C       0.77012   0.40111   0.50000 
H          H       0.80292   0.45633   0.50000 
O          O       0.86579   0.45927   0.50000 
C          C       0.53710   0.01896   0.50000 
C          C       0.55511   0.05554   0.50000 
C          C       0.55505   0.00034   0.50000 
H          H       0.58166   0.06881   0.50000 
H          H       0.58158   0.01313   0.50000 
C          C       0.59910   0.43219   0.50000 
C          C       0.63090   0.43286   0.50000 
C          C       0.66105   0.40249   0.50000 
C          C       0.68814   0.40307   0.50000 
C          C       0.63098   0.40110   0.50000 
H          H       0.65340   0.45632   0.50000 
O          O       0.59347   0.45926   0.50000 
C          C       0.44504   0.94531   0.50000 
C          C       0.42703   0.90873   0.50000 
C          C       0.42709   0.96393   0.50000 
H          H       0.40048   0.89545   0.50000 
H          H       0.40057   0.95114   0.50000 
C          C       0.38302   0.58567   0.50000 
C          C       0.35122   0.58499   0.50000 
C          C       0.35115   0.61674   0.50000 
H          H       0.32871   0.56153   0.50000 
O          O       0.38865   0.55860   0.50000 
B          B       0.14827   0.57414   0.50000 
B          B       0.88747   0.44374   0.50000 
C          C       0.44515   0.89029   0.50000 
C          C       0.48186   0.96371   0.50000 
C          C       0.53699   0.07397   0.50000 
C          C       0.50028   0.00055   0.50000 
C          C       0.05469   0.55497   0.50000 
C          C       0.09127   0.57298   0.50000 
C          C       0.03607   0.57292   0.50000 
H          H       0.10455   0.59953   0.50000 
H          H       0.04886   0.59945   0.50000 
C          C       0.41433   0.61697   0.50000 
C          C       0.41501   0.64878   0.50000 
C          C       0.38455   0.67887   0.50000 
C          C       0.38455   0.70568   0.50000 
C          C       0.38325   0.64884   0.50000 
H          H       0.43846   0.67128   0.50000 
O          O       0.44139   0.61133   0.50000 
C          C       0.98104   0.46291   0.50000 
C          C       0.94446   0.44490   0.50000 
C          C       0.99966   0.44496   0.50000 
H          H       0.93119   0.41835   0.50000 
H          H       0.98687   0.41844   0.50000 
C          C       0.56780   0.40089   0.50000 
C          C       0.56713   0.36909   0.50000 
C          C       0.59751   0.33894   0.50000 
C          C       0.59693   0.31186   0.50000 
C          C       0.59889   0.36901   0.50000 
H          H       0.54367   0.34659   0.50000 
O          O       0.54073   0.40652   0.50000 
C          C       0.98104   0.51815   0.50000 
C          C       0.94446   0.49958   0.50000 
C          C       0.99966   0.55472   0.50000 
H          H       0.93119   0.51285   0.50000 
H          H       0.98687   0.56845   0.50000 
C          C       0.56781   0.16691   0.50000 
C          C       0.56714   0.19804   0.50000 
C          C       0.59751   0.25856   0.50000 
C          C       0.59693   0.28507   0.50000 
C          C       0.59890   0.22988   0.50000 
H          H       0.54368   0.19708   0.50000 
O          O       0.54074   0.13421   0.50000 
C          C       0.05469   0.49973   0.50000 
C          C       0.09127   0.51831   0.50000 
C          C       0.03607   0.46316   0.50000 
H          H       0.10455   0.50503   0.50000 
H          H       0.04886   0.44943   0.50000 
C          C       0.41433   0.79736   0.50000 
C          C       0.41501   0.76623   0.50000 
C          C       0.38326   0.73441   0.50000 
H          H       0.43847   0.76718   0.50000 
O          O       0.44140   0.83006   0.50000 
B          B       0.42586   0.57413   0.50000 
B          B       0.55626   0.44373   0.50000 
C          C       0.10971   0.55486   0.50000 
C          C       0.03629   0.51815   0.50000 
C          C       0.92603   0.46302   0.50000 
C          C       0.99945   0.49973   0.50000 
