data_crystal

_cell_length_a    46.94140
_cell_length_b    46.94140
_cell_length_c    7.04180
_cell_angle_alpha 90.00000
_cell_angle_beta  90.00000
_cell_angle_gamma 120.00210

_space_group_name_Hall 'P 1'
_space_group_name_H-M_alt  'P 1'

loop_
_symmetry_equiv_pos_as_xyz
'x,y,z' 

loop_
_atom_site_label
_atom_site_type_symbol
_atom_site_fract_x
_atom_site_fract_y
_atom_site_fract_z
C          C       0.45631   0.49126   0.61662 
C          C       0.43922   0.50889   0.61662 
C          C       0.43927   0.45655   0.61662 
H          H       0.41402   0.49629   0.61662 
H          H       0.41410   0.44352   0.61662 
C          C       0.39746   0.82462   0.61661 
C          C       0.36728   0.79507   0.61662 
C          C       0.33867   0.73763   0.61662 
C          C       0.31296   0.71247   0.61662 
C          C       0.36721   0.76486   0.61661 
H          H       0.34593   0.79598   0.61661 
O          O       0.40281   0.85566   0.61662 
C          C       0.50874   0.96505   0.61662 
C          C       0.49111   0.93033   0.61662 
C          C       0.54345   0.98273   0.61662 
H          H       0.50371   0.91773   0.61662 
H          H       0.55648   0.97059   0.61662 
C          C       0.17538   0.57283   0.61662 
C          C       0.20492   0.57219   0.61662 
C          C       0.26237   0.60102   0.61661 
C          C       0.28753   0.60047   0.61661 
C          C       0.23514   0.60233   0.61661 
H          H       0.20401   0.54992   0.61662 
O          O       0.14434   0.54714   0.61661 
C          C       0.03495   0.54369   0.61662 
C          C       0.06967   0.56078   0.61662 
C          C       0.01728   0.56073   0.61661 
H          H       0.08228   0.58598   0.61662 
H          H       0.02943   0.58590   0.61661 
C          C       0.42717   0.60254   0.61661 
C          C       0.42780   0.63272   0.61661 
C          C       0.39897   0.66134   0.61662 
C          C       0.39953   0.68705   0.61662 
C          C       0.39766   0.63280   0.61662 
H          H       0.45007   0.65408   0.61661 
O          O       0.45286   0.59719   0.61662 
C          C       0.54369   0.50874   0.61662 
C          C       0.56078   0.49111   0.61661 
C          C       0.56073   0.54345   0.61662 
H          H       0.58598   0.50371   0.61662 
H          H       0.58590   0.55648   0.61661 
C          C       0.60253   0.17538   0.61662 
C          C       0.63272   0.20493   0.61662 
C          C       0.66133   0.26237   0.61661 
C          C       0.68704   0.28753   0.61661 
C          C       0.63279   0.23514   0.61662 
H          H       0.65407   0.20402   0.61662 
O          O       0.59719   0.14434   0.61661 
C          C       0.49126   0.03495   0.61662 
C          C       0.50888   0.06967   0.61662 
C          C       0.45655   0.01727   0.61662 
H          H       0.49629   0.08227   0.61661 
H          H       0.44351   0.02941   0.61661 
C          C       0.82462   0.42717   0.61661 
C          C       0.79508   0.42781   0.61662 
C          C       0.73763   0.39898   0.61662 
C          C       0.71247   0.39953   0.61662 
C          C       0.76486   0.39766   0.61662 
H          H       0.79599   0.45008   0.61661 
O          O       0.85566   0.45286   0.61661 
C          C       0.96504   0.45631   0.61662 
C          C       0.93033   0.43922   0.61662 
C          C       0.98271   0.43927   0.61662 
H          H       0.91772   0.41402   0.61661 
H          H       0.97057   0.41410   0.61662 
C          C       0.57283   0.39746   0.61662 
C          C       0.57220   0.36728   0.61662 
C          C       0.60102   0.33866   0.61661 
C          C       0.60047   0.31295   0.61661 
C          C       0.60234   0.36720   0.61662 
H          H       0.54993   0.34592   0.61662 
O          O       0.54714   0.40281   0.61662 
C          C       0.49126   0.45631   0.61662 
C          C       0.50889   0.43922   0.61662 
C          C       0.45655   0.43927   0.61662 
H          H       0.49629   0.41402   0.61661 
H          H       0.44352   0.41410   0.61661 
C          C       0.82462   0.39747   0.61661 
C          C       0.79507   0.36728   0.61662 
C          C       0.73763   0.33867   0.61662 
C          C       0.71247   0.31296   0.61661 
C          C       0.76486   0.36721   0.61662 
H          H       0.79598   0.34593   0.61661 
O          O       0.85566   0.40281   0.61661 
C          C       0.96505   0.50874   0.61662 
C          C       0.93033   0.49111   0.61662 
C          C       0.98273   0.54345   0.61661 
H          H       0.91773   0.50371   0.61662 
H          H       0.97059   0.55648   0.61661 
C          C       0.57283   0.17538   0.61662 
C          C       0.57219   0.20492   0.61662 
C          C       0.60102   0.26237   0.61661 
C          C       0.60047   0.28753   0.61661 
C          C       0.60233   0.23514   0.61662 
H          H       0.54992   0.20401   0.61662 
O          O       0.54714   0.14434   0.61662 
C          C       0.54369   0.03495   0.61662 
C          C       0.56078   0.06967   0.61661 
C          C       0.56073   0.01728   0.61661 
H          H       0.58598   0.08228   0.61661 
H          H       0.58590   0.02943   0.61661 
C          C       0.60254   0.42717   0.61662 
C          C       0.63272   0.42780   0.61662 
C          C       0.66134   0.39897   0.61662 
C          C       0.68705   0.39953   0.61662 
C          C       0.63280   0.39766   0.61662 
H          H       0.65408   0.45007   0.61661 
O          O       0.59719   0.45286   0.61662 
C          C       0.50874   0.54369   0.61662 
C          C       0.49111   0.56078   0.61661 
C          C       0.54345   0.56073   0.61662 
H          H       0.50371   0.58598   0.61661 
H          H       0.55648   0.58590   0.61662 
C          C       0.17538   0.60253   0.61662 
C          C       0.20493   0.63272   0.61662 
C          C       0.26237   0.66133   0.61661 
C          C       0.28753   0.68704   0.61662 
C          C       0.23514   0.63279   0.61661 
H          H       0.20402   0.65407   0.61662 
O          O       0.14434   0.59719   0.61662 
C          C       0.03495   0.49126   0.61662 
C          C       0.06967   0.50888   0.61661 
C          C       0.01727   0.45655   0.61661 
H          H       0.08227   0.49629   0.61661 
H          H       0.02941   0.44351   0.61661 
C          C       0.42717   0.82462   0.61661 
C          C       0.42781   0.79508   0.61661 
C          C       0.39898   0.73763   0.61662 
C          C       0.39953   0.71247   0.61662 
C          C       0.39766   0.76486   0.61662 
H          H       0.45007   0.79599   0.61661 
O          O       0.45286   0.85566   0.61661 
C          C       0.45631   0.96504   0.61662 
C          C       0.43922   0.93033   0.61662 
C          C       0.43927   0.98271   0.61661 
H          H       0.41402   0.91772   0.61662 
H          H       0.41410   0.97057   0.61661 
C          C       0.39746   0.57283   0.61661 
C          C       0.36728   0.57220   0.61662 
C          C       0.33866   0.60102   0.61661 
C          C       0.31295   0.60047   0.61661 
C          C       0.36720   0.60234   0.61661 
H          H       0.34592   0.54993   0.61662 
O          O       0.40281   0.54714   0.61661 
B          B       0.43812   0.87623   0.61662 
B          B       0.12376   0.56188   0.61662 
B          B       0.43812   0.56188   0.61662 
B          B       0.56188   0.12376   0.61661 
B          B       0.87623   0.43812   0.61661 
B          B       0.56188   0.43812   0.61662 
C          C       0.45642   0.54358   0.61661 
C          C       0.49126   0.50874   0.61662 
C          C       0.45642   0.91283   0.61662 
C          C       0.49126   0.98252   0.61662 
C          C       0.08717   0.54358   0.61661 
C          C       0.01748   0.50874   0.61662 
C          C       0.54358   0.45642   0.61661 
C          C       0.50874   0.49126   0.61662 
C          C       0.54358   0.08717   0.61661 
C          C       0.50874   0.01748   0.61662 
C          C       0.91283   0.45642   0.61662 
C          C       0.98252   0.49126   0.61662 
C          C       0.45631   0.49126   1.11662 
C          C       0.43922   0.50889   1.11662 
C          C       0.43927   0.45655   1.11662 
H          H       0.41402   0.49629   1.11662 
H          H       0.41410   0.44352   1.11662 
C          C       0.39746   0.82462   1.11661 
C          C       0.36728   0.79507   1.11662 
C          C       0.33867   0.73763   1.11662 
C          C       0.31296   0.71247   1.11662 
C          C       0.36721   0.76486   1.11661 
H          H       0.34593   0.79598   1.11661 
O          O       0.40281   0.85566   1.11662 
C          C       0.50874   0.96505   1.11662 
C          C       0.49111   0.93033   1.11662 
C          C       0.54345   0.98273   1.11662 
H          H       0.50371   0.91773   1.11662 
H          H       0.55648   0.97059   1.11662 
C          C       0.17538   0.57283   1.11662 
C          C       0.20492   0.57219   1.11662 
C          C       0.26237   0.60102   1.11661 
C          C       0.28753   0.60047   1.11661 
C          C       0.23514   0.60233   1.11661 
H          H       0.20401   0.54992   1.11662 
O          O       0.14434   0.54714   1.11661 
C          C       0.03495   0.54369   1.11662 
C          C       0.06967   0.56078   1.11662 
C          C       0.01728   0.56073   1.11661 
H          H       0.08228   0.58598   1.11662 
H          H       0.02943   0.58590   1.11661 
C          C       0.42717   0.60254   1.11661 
C          C       0.42780   0.63272   1.11661 
C          C       0.39897   0.66134   1.11662 
C          C       0.39953   0.68705   1.11662 
C          C       0.39766   0.63280   1.11662 
H          H       0.45007   0.65408   1.11661 
O          O       0.45286   0.59719   1.11662 
C          C       0.54369   0.50874   1.11662 
C          C       0.56078   0.49111   1.11661 
C          C       0.56073   0.54345   1.11662 
H          H       0.58598   0.50371   1.11662 
H          H       0.58590   0.55648   1.11661 
C          C       0.60253   0.17538   1.11662 
C          C       0.63272   0.20493   1.11662 
C          C       0.66133   0.26237   1.11661 
C          C       0.68704   0.28753   1.11661 
C          C       0.63279   0.23514   1.11662 
H          H       0.65407   0.20402   1.11662 
O          O       0.59719   0.14434   1.11661 
C          C       0.49126   0.03495   1.11662 
C          C       0.50888   0.06967   1.11662 
C          C       0.45655   0.01727   1.11662 
H          H       0.49629   0.08227   1.11661 
H          H       0.44351   0.02941   1.11661 
C          C       0.82462   0.42717   1.11661 
C          C       0.79508   0.42781   1.11662 
C          C       0.73763   0.39898   1.11662 
C          C       0.71247   0.39953   1.11662 
C          C       0.76486   0.39766   1.11662 
H          H       0.79599   0.45008   1.11661 
O          O       0.85566   0.45286   1.11661 
C          C       0.96504   0.45631   1.11662 
C          C       0.93033   0.43922   1.11662 
C          C       0.98271   0.43927   1.11662 
H          H       0.91772   0.41402   1.11661 
H          H       0.97057   0.41410   1.11662 
C          C       0.57283   0.39746   1.11662 
C          C       0.57220   0.36728   1.11662 
C          C       0.60102   0.33866   1.11661 
C          C       0.60047   0.31295   1.11661 
C          C       0.60234   0.36720   1.11662 
H          H       0.54993   0.34592   1.11662 
O          O       0.54714   0.40281   1.11662 
C          C       0.49126   0.45631   1.11662 
C          C       0.50889   0.43922   1.11662 
C          C       0.45655   0.43927   1.11662 
H          H       0.49629   0.41402   1.11661 
H          H       0.44352   0.41410   1.11661 
C          C       0.82462   0.39747   1.11661 
C          C       0.79507   0.36728   1.11662 
C          C       0.73763   0.33867   1.11662 
C          C       0.71247   0.31296   1.11661 
C          C       0.76486   0.36721   1.11662 
H          H       0.79598   0.34593   1.11661 
O          O       0.85566   0.40281   1.11661 
C          C       0.96505   0.50874   1.11662 
C          C       0.93033   0.49111   1.11662 
C          C       0.98273   0.54345   1.11661 
H          H       0.91773   0.50371   1.11662 
H          H       0.97059   0.55648   1.11661 
C          C       0.57283   0.17538   1.11662 
C          C       0.57219   0.20492   1.11662 
C          C       0.60102   0.26237   1.11661 
C          C       0.60047   0.28753   1.11661 
C          C       0.60233   0.23514   1.11662 
H          H       0.54992   0.20401   1.11662 
O          O       0.54714   0.14434   1.11662 
C          C       0.54369   0.03495   1.11662 
C          C       0.56078   0.06967   1.11661 
C          C       0.56073   0.01728   1.11661 
H          H       0.58598   0.08228   1.11661 
H          H       0.58590   0.02943   1.11661 
C          C       0.60254   0.42717   1.11662 
C          C       0.63272   0.42780   1.11662 
C          C       0.66134   0.39897   1.11662 
C          C       0.68705   0.39953   1.11662 
C          C       0.63280   0.39766   1.11662 
H          H       0.65408   0.45007   1.11661 
O          O       0.59719   0.45286   1.11662 
C          C       0.50874   0.54369   1.11662 
C          C       0.49111   0.56078   1.11661 
C          C       0.54345   0.56073   1.11662 
H          H       0.50371   0.58598   1.11661 
H          H       0.55648   0.58590   1.11662 
C          C       0.17538   0.60253   1.11662 
C          C       0.20493   0.63272   1.11662 
C          C       0.26237   0.66133   1.11661 
C          C       0.28753   0.68704   1.11662 
C          C       0.23514   0.63279   1.11661 
H          H       0.20402   0.65407   1.11662 
O          O       0.14434   0.59719   1.11662 
C          C       0.03495   0.49126   1.11662 
C          C       0.06967   0.50888   1.11661 
C          C       0.01727   0.45655   1.11661 
H          H       0.08227   0.49629   1.11661 
H          H       0.02941   0.44351   1.11661 
C          C       0.42717   0.82462   1.11661 
C          C       0.42781   0.79508   1.11661 
C          C       0.39898   0.73763   1.11662 
C          C       0.39953   0.71247   1.11662 
C          C       0.39766   0.76486   1.11662 
H          H       0.45007   0.79599   1.11661 
O          O       0.45286   0.85566   1.11661 
C          C       0.45631   0.96504   1.11662 
C          C       0.43922   0.93033   1.11662 
C          C       0.43927   0.98271   1.11661 
H          H       0.41402   0.91772   1.11662 
H          H       0.41410   0.97057   1.11661 
C          C       0.39746   0.57283   1.11661 
C          C       0.36728   0.57220   1.11662 
C          C       0.33866   0.60102   1.11661 
C          C       0.31295   0.60047   1.11661 
C          C       0.36720   0.60234   1.11661 
H          H       0.34592   0.54993   1.11662 
O          O       0.40281   0.54714   1.11661 
B          B       0.43812   0.87623   1.11662 
B          B       0.12376   0.56188   1.11662 
B          B       0.43812   0.56188   1.11662 
B          B       0.56188   0.12376   1.11661 
B          B       0.87623   0.43812   1.11661 
B          B       0.56188   0.43812   1.11662 
C          C       0.45642   0.54358   1.11661 
C          C       0.49126   0.50874   1.11662 
C          C       0.45642   0.91283   1.11662 
C          C       0.49126   0.98252   1.11662 
C          C       0.08717   0.54358   1.11661 
C          C       0.01748   0.50874   1.11662 
C          C       0.54358   0.45642   1.11661 
C          C       0.50874   0.49126   1.11662 
C          C       0.54358   0.08717   1.11661 
C          C       0.50874   0.01748   1.11662 
C          C       0.91283   0.45642   1.11662 
C          C       0.98252   0.49126   1.11662 
