data_crystal

_cell_length_a    42.16380
_cell_length_b    42.16380
_cell_length_c    7.01680
_cell_angle_alpha 90.00000
_cell_angle_beta  90.00000
_cell_angle_gamma 120.00000

_space_group_name_Hall 'P 1'
_space_group_name_H-M_alt  'P 1'

loop_
_symmetry_equiv_pos_as_xyz
'x,y,z' 

loop_
_atom_site_label
_atom_site_type_symbol
_atom_site_fract_x
_atom_site_fract_y
_atom_site_fract_z
C          C       0.45136   0.49027   0.00000 
C          C       0.43233   0.50990   0.00000 
C          C       0.43239   0.45163   0.00000 
H          H       0.40428   0.49587   0.00000 
H          H       0.40437   0.43712   0.00000 
C          C       0.38584   0.80476   0.00000 
C          C       0.35223   0.77187   0.00000 
C          C       0.32044   0.70789   0.00000 
C          C       0.35216   0.73824   0.00000 
H          H       0.32845   0.77287   0.00000 
O          O       0.39179   0.83931   0.00000 
C          C       0.54864   0.50973   0.00000 
C          C       0.56767   0.49011   0.00000 
C          C       0.56761   0.54837   0.00000 
H          H       0.59572   0.50413   0.00000 
H          H       0.59563   0.56288   0.00000 
C          C       0.61416   0.19524   0.00000 
C          C       0.64777   0.22813   0.00000 
C          C       0.67956   0.29211   0.00000 
C          C       0.70789   0.32044   0.00000 
C          C       0.64784   0.26176   0.00000 
H          H       0.67155   0.22713   0.00000 
O          O       0.60821   0.16069   0.00000 
C          C       0.50973   0.54864   0.00000 
C          C       0.49011   0.56767   0.00000 
C          C       0.54837   0.56761   0.00000 
H          H       0.50413   0.59572   0.00000 
H          H       0.56288   0.59563   0.00000 
C          C       0.19524   0.61416   0.00000 
C          C       0.22813   0.64777   0.00000 
C          C       0.29211   0.67956   0.00000 
C          C       0.26176   0.64784   0.00000 
H          H       0.22713   0.67155   0.00000 
O          O       0.16069   0.60821   0.00000 
C          C       0.49027   0.45136   0.00000 
C          C       0.50990   0.43233   0.00000 
C          C       0.45163   0.43239   0.00000 
H          H       0.49587   0.40428   0.00000 
H          H       0.43712   0.40437   0.00000 
C          C       0.80476   0.38584   0.00000 
C          C       0.77187   0.35223   0.00000 
C          C       0.73824   0.35216   0.00000 
H          H       0.77287   0.32845   0.00000 
O          O       0.83931   0.39179   0.00000 
B          B       0.43111   0.86222   0.00000 
B          B       0.56889   0.13778   0.00000 
C          C       0.45148   0.54852   0.00000 
C          C       0.49027   0.50973   0.00000 
C          C       0.54852   0.45148   0.00000 
C          C       0.50973   0.49027   0.00000 
C          C       0.50973   0.96109   0.00000 
C          C       0.49010   0.92244   0.00000 
C          C       0.54837   0.98076   0.00000 
H          H       0.50413   0.90841   0.00000 
H          H       0.56288   0.96725   0.00000 
C          C       0.19524   0.58108   0.00000 
C          C       0.22813   0.58036   0.00000 
C          C       0.29211   0.61255   0.00000 
C          C       0.26176   0.61392   0.00000 
H          H       0.22713   0.55558   0.00000 
O          O       0.16069   0.55248   0.00000 
C          C       0.49027   0.03891   0.00000 
C          C       0.50989   0.07756   0.00000 
C          C       0.45163   0.01924   0.00000 
H          H       0.49587   0.09159   0.00000 
H          H       0.43712   0.03275   0.00000 
C          C       0.80476   0.41892   0.00000 
C          C       0.77187   0.41964   0.00000 
C          C       0.70789   0.38745   0.00000 
C          C       0.67956   0.38745   0.00000 
C          C       0.73824   0.38608   0.00000 
H          H       0.77287   0.44442   0.00000 
O          O       0.83931   0.44752   0.00000 
C          C       0.45136   0.96109   0.00000 
C          C       0.43233   0.92244   0.00000 
C          C       0.43239   0.98076   0.00000 
H          H       0.40428   0.90841   0.00000 
H          H       0.40437   0.96725   0.00000 
C          C       0.38584   0.58108   0.00000 
C          C       0.35223   0.58036   0.00000 
C          C       0.32044   0.61255   0.00000 
C          C       0.35216   0.61392   0.00000 
H          H       0.32845   0.55558   0.00000 
O          O       0.39180   0.55248   0.00000 
C          C       0.54864   0.03891   0.00000 
C          C       0.56767   0.07756   0.00000 
C          C       0.56761   0.01924   0.00000 
H          H       0.59572   0.09159   0.00000 
H          H       0.59563   0.03275   0.00000 
C          C       0.61416   0.41892   0.00000 
C          C       0.64777   0.41964   0.00000 
C          C       0.64784   0.38608   0.00000 
H          H       0.67155   0.44442   0.00000 
O          O       0.60821   0.44752   0.00000 
B          B       0.13778   0.56889   0.00000 
B          B       0.86222   0.43111   0.00000 
C          C       0.45148   0.90296   0.00000 
C          C       0.49027   0.98054   0.00000 
C          C       0.54852   0.09704   0.00000 
C          C       0.50973   0.01946   0.00000 
C          C       0.03891   0.54864   0.00000 
C          C       0.07756   0.56767   0.00000 
C          C       0.01924   0.56761   0.00000 
H          H       0.09159   0.59572   0.00000 
H          H       0.03275   0.59563   0.00000 
C          C       0.41892   0.61416   0.00000 
C          C       0.41964   0.64777   0.00000 
C          C       0.38745   0.67956   0.00000 
C          C       0.38608   0.64784   0.00000 
H          H       0.44442   0.67155   0.00000 
O          O       0.44752   0.60821   0.00000 
C          C       0.96109   0.45136   0.00000 
C          C       0.92244   0.43233   0.00000 
C          C       0.98076   0.43239   0.00000 
H          H       0.90841   0.40428   0.00000 
H          H       0.96725   0.40437   0.00000 
C          C       0.58108   0.38584   0.00000 
C          C       0.58036   0.35223   0.00000 
C          C       0.61255   0.32044   0.00000 
C          C       0.61255   0.29211   0.00000 
C          C       0.61392   0.35216   0.00000 
H          H       0.55558   0.32845   0.00000 
O          O       0.55248   0.39180   0.00000 
C          C       0.03891   0.49027   0.00000 
C          C       0.07756   0.50989   0.00000 
C          C       0.01924   0.45163   0.00000 
H          H       0.09159   0.49587   0.00000 
H          H       0.03275   0.43712   0.00000 
C          C       0.41892   0.80476   0.00000 
C          C       0.41964   0.77187   0.00000 
C          C       0.38745   0.70789   0.00000 
C          C       0.38608   0.73824   0.00000 
H          H       0.44442   0.77287   0.00000 
O          O       0.44752   0.83931   0.00000 
C          C       0.96109   0.50973   0.00000 
C          C       0.92244   0.49010   0.00000 
C          C       0.98076   0.54837   0.00000 
H          H       0.90841   0.50413   0.00000 
H          H       0.96725   0.56288   0.00000 
C          C       0.58108   0.19524   0.00000 
C          C       0.58036   0.22813   0.00000 
C          C       0.61392   0.26176   0.00000 
H          H       0.55558   0.22713   0.00000 
O          O       0.55248   0.16069   0.00000 
B          B       0.43111   0.56889   0.00000 
B          B       0.56889   0.43111   0.00000 
C          C       0.09704   0.54852   0.00000 
C          C       0.01946   0.50973   0.00000 
C          C       0.90296   0.45148   0.00000 
C          C       0.98054   0.49027   0.00000 
C          C       0.45136   0.49027   0.50000 
C          C       0.43233   0.50990   0.50000 
C          C       0.43239   0.45163   0.50000 
H          H       0.40428   0.49587   0.50000 
H          H       0.40437   0.43712   0.50000 
C          C       0.38584   0.80476   0.50000 
C          C       0.35223   0.77187   0.50000 
C          C       0.32044   0.70789   0.50000 
C          C       0.35216   0.73824   0.50000 
H          H       0.32845   0.77287   0.50000 
O          O       0.39179   0.83931   0.50000 
C          C       0.54864   0.50973   0.50000 
C          C       0.56767   0.49011   0.50000 
C          C       0.56761   0.54837   0.50000 
H          H       0.59572   0.50413   0.50000 
H          H       0.59563   0.56288   0.50000 
C          C       0.61416   0.19524   0.50000 
C          C       0.64777   0.22813   0.50000 
C          C       0.67956   0.29211   0.50000 
C          C       0.70789   0.32044   0.50000 
C          C       0.64784   0.26176   0.50000 
H          H       0.67155   0.22713   0.50000 
O          O       0.60821   0.16069   0.50000 
C          C       0.50973   0.54864   0.50000 
C          C       0.49011   0.56767   0.50000 
C          C       0.54837   0.56761   0.50000 
H          H       0.50413   0.59572   0.50000 
H          H       0.56288   0.59563   0.50000 
C          C       0.19524   0.61416   0.50000 
C          C       0.22813   0.64777   0.50000 
C          C       0.29211   0.67956   0.50000 
C          C       0.26176   0.64784   0.50000 
H          H       0.22713   0.67155   0.50000 
O          O       0.16069   0.60821   0.50000 
C          C       0.49027   0.45136   0.50000 
C          C       0.50990   0.43233   0.50000 
C          C       0.45163   0.43239   0.50000 
H          H       0.49587   0.40428   0.50000 
H          H       0.43712   0.40437   0.50000 
C          C       0.80476   0.38584   0.50000 
C          C       0.77187   0.35223   0.50000 
C          C       0.73824   0.35216   0.50000 
H          H       0.77287   0.32845   0.50000 
O          O       0.83931   0.39179   0.50000 
B          B       0.43111   0.86222   0.50000 
B          B       0.56889   0.13778   0.50000 
C          C       0.45148   0.54852   0.50000 
C          C       0.49027   0.50973   0.50000 
C          C       0.54852   0.45148   0.50000 
C          C       0.50973   0.49027   0.50000 
C          C       0.50973   0.96109   0.50000 
C          C       0.49010   0.92244   0.50000 
C          C       0.54837   0.98076   0.50000 
H          H       0.50413   0.90841   0.50000 
H          H       0.56288   0.96725   0.50000 
C          C       0.19524   0.58108   0.50000 
C          C       0.22813   0.58036   0.50000 
C          C       0.29211   0.61255   0.50000 
C          C       0.26176   0.61392   0.50000 
H          H       0.22713   0.55558   0.50000 
O          O       0.16069   0.55248   0.50000 
C          C       0.49027   0.03891   0.50000 
C          C       0.50989   0.07756   0.50000 
C          C       0.45163   0.01924   0.50000 
H          H       0.49587   0.09159   0.50000 
H          H       0.43712   0.03275   0.50000 
C          C       0.80476   0.41892   0.50000 
C          C       0.77187   0.41964   0.50000 
C          C       0.70789   0.38745   0.50000 
C          C       0.67956   0.38745   0.50000 
C          C       0.73824   0.38608   0.50000 
H          H       0.77287   0.44442   0.50000 
O          O       0.83931   0.44752   0.50000 
C          C       0.45136   0.96109   0.50000 
C          C       0.43233   0.92244   0.50000 
C          C       0.43239   0.98076   0.50000 
H          H       0.40428   0.90841   0.50000 
H          H       0.40437   0.96725   0.50000 
C          C       0.38584   0.58108   0.50000 
C          C       0.35223   0.58036   0.50000 
C          C       0.32044   0.61255   0.50000 
C          C       0.35216   0.61392   0.50000 
H          H       0.32845   0.55558   0.50000 
O          O       0.39180   0.55248   0.50000 
C          C       0.54864   0.03891   0.50000 
C          C       0.56767   0.07756   0.50000 
C          C       0.56761   0.01924   0.50000 
H          H       0.59572   0.09159   0.50000 
H          H       0.59563   0.03275   0.50000 
C          C       0.61416   0.41892   0.50000 
C          C       0.64777   0.41964   0.50000 
C          C       0.64784   0.38608   0.50000 
H          H       0.67155   0.44442   0.50000 
O          O       0.60821   0.44752   0.50000 
B          B       0.13778   0.56889   0.50000 
B          B       0.86222   0.43111   0.50000 
C          C       0.45148   0.90296   0.50000 
C          C       0.49027   0.98054   0.50000 
C          C       0.54852   0.09704   0.50000 
C          C       0.50973   0.01946   0.50000 
C          C       0.03891   0.54864   0.50000 
C          C       0.07756   0.56767   0.50000 
C          C       0.01924   0.56761   0.50000 
H          H       0.09159   0.59572   0.50000 
H          H       0.03275   0.59563   0.50000 
C          C       0.41892   0.61416   0.50000 
C          C       0.41964   0.64777   0.50000 
C          C       0.38745   0.67956   0.50000 
C          C       0.38608   0.64784   0.50000 
H          H       0.44442   0.67155   0.50000 
O          O       0.44752   0.60821   0.50000 
C          C       0.96109   0.45136   0.50000 
C          C       0.92244   0.43233   0.50000 
C          C       0.98076   0.43239   0.50000 
H          H       0.90841   0.40428   0.50000 
H          H       0.96725   0.40437   0.50000 
C          C       0.58108   0.38584   0.50000 
C          C       0.58036   0.35223   0.50000 
C          C       0.61255   0.32044   0.50000 
C          C       0.61255   0.29211   0.50000 
C          C       0.61392   0.35216   0.50000 
H          H       0.55558   0.32845   0.50000 
O          O       0.55248   0.39180   0.50000 
C          C       0.03891   0.49027   0.50000 
C          C       0.07756   0.50989   0.50000 
C          C       0.01924   0.45163   0.50000 
H          H       0.09159   0.49587   0.50000 
H          H       0.03275   0.43712   0.50000 
C          C       0.41892   0.80476   0.50000 
C          C       0.41964   0.77187   0.50000 
C          C       0.38745   0.70789   0.50000 
C          C       0.38608   0.73824   0.50000 
H          H       0.44442   0.77287   0.50000 
O          O       0.44752   0.83931   0.50000 
C          C       0.96109   0.50973   0.50000 
C          C       0.92244   0.49010   0.50000 
C          C       0.98076   0.54837   0.50000 
H          H       0.90841   0.50413   0.50000 
H          H       0.96725   0.56288   0.50000 
C          C       0.58108   0.19524   0.50000 
C          C       0.58036   0.22813   0.50000 
C          C       0.61392   0.26176   0.50000 
H          H       0.55558   0.22713   0.50000 
O          O       0.55248   0.16069   0.50000 
B          B       0.43111   0.56889   0.50000 
B          B       0.56889   0.43111   0.50000 
C          C       0.09704   0.54852   0.50000 
C          C       0.01946   0.50973   0.50000 
C          C       0.90296   0.45148   0.50000 
C          C       0.98054   0.49027   0.50000 
