data_crystal

_cell_length_a    21.04700
_cell_length_b    21.04700
_cell_length_c    7.12280
_cell_angle_alpha 90.00000
_cell_angle_beta  90.00000
_cell_angle_gamma 120.00000

_space_group_name_Hall 'P 1'
_space_group_name_H-M_alt 'P 1'

loop_
_symmetry_equiv_pos_as_xyz
 'x,y,z'

loop_
_atom_site_label
_atom_site_type_symbol
_atom_site_fract_x
_atom_site_fract_y
_atom_site_fract_z
C          C       0.49935   0.43403   0.25000
C          C       0.43426   0.49966   0.25000
C          C       0.56597   0.06532   0.25000
C          C       0.50034   0.93460   0.25000
C          C       0.93468   0.50065   0.25000
C          C       0.06540   0.56574   0.25000
C          C       0.50065   0.56597   0.25000
C          C       0.56574   0.50034   0.25000
C          C       0.43403   0.93468   0.25000
C          C       0.49966   0.06540   0.25000
C          C       0.06532   0.49935   0.25000
C          C       0.93460   0.43426   0.25000
C          C       0.43144   0.43159   0.25000
C          C       0.56842   0.99985   0.25000
C          C       0.00015   0.56857   0.25000
C          C       0.56857   0.56842   0.25000
C          C       0.43159   0.00015   0.25000
C          C       0.99985   0.43144   0.25000
O          O       0.51395   0.37929   0.25000
N          N       0.37941   0.51472   0.25000
O          O       0.62071   0.13466   0.25000
N          N       0.48529   0.86469   0.25000
O          O       0.86534   0.48605   0.25000
N          N       0.13531   0.62059   0.25000
O          O       0.48605   0.62071   0.25000
N          N       0.62059   0.48529   0.25000
O          O       0.37929   0.86534   0.25000
N          N       0.51472   0.13531   0.25000
O          O       0.13466   0.51395   0.25000
N          N       0.86469   0.37941   0.25000
B          B       0.41200   0.58933   0.25000
B          B       0.41067   0.82267   0.25000
B          B       0.17733   0.58800   0.25000
B          B       0.58800   0.41067   0.25000
B          B       0.58933   0.17733   0.25000
B          B       0.82267   0.41200   0.25000
H          H       0.38298   0.38338   0.25000
H          H       0.61702   0.61662   0.25000
H          H       0.61662   0.99960   0.25000
H          H       0.00040   0.61702   0.25000
H          H       0.38338   0.00040   0.25000
H          H       0.99960   0.38298   0.25000
C          C       0.62804   0.25492   0.25000
C          C       0.74508   0.37312   0.25000
C          C       0.62688   0.37196   0.25000
C          C       0.70566   0.29551   0.25000
C          C       0.70449   0.41015   0.25000
C          C       0.58985   0.29435   0.25000
C          C       0.37196   0.74508   0.25000
C          C       0.25492   0.62688   0.25000
C          C       0.37312   0.62804   0.25000
C          C       0.29435   0.70449   0.25000
C          C       0.29551   0.58985   0.25000
C          C       0.41015   0.70566   0.25000
H          H       0.53359   0.26577   0.25000
H          H       0.73423   0.26782   0.25000
H          H       0.73219   0.46642   0.25000
H          H       0.46642   0.73423   0.25000
H          H       0.26577   0.73219   0.25000
H          H       0.26781   0.53359   0.25000
C          C       0.49935   0.43403   0.75000
C          C       0.43426   0.49966   0.75000
C          C       0.56597   0.06532   0.75000
C          C       0.50034   0.93460   0.75000
C          C       0.93468   0.50065   0.75000
C          C       0.06540   0.56574   0.75000
C          C       0.50065   0.56597   0.75000
C          C       0.56574   0.50034   0.75000
C          C       0.43403   0.93468   0.75000
C          C       0.49966   0.06540   0.75000
C          C       0.06532   0.49935   0.75000
C          C       0.93460   0.43426   0.75000
C          C       0.43144   0.43159   0.75000
C          C       0.56842   0.99985   0.75000
C          C       0.00015   0.56857   0.75000
C          C       0.56857   0.56842   0.75000
C          C       0.43159   0.00015   0.75000
C          C       0.99985   0.43144   0.75000
N          N       0.51395   0.37929   0.75000
O          O       0.37941   0.51472   0.75000
N          N       0.62071   0.13466   0.75000
O          O       0.48529   0.86469   0.75000
N          N       0.86534   0.48605   0.75000
O          O       0.13531   0.62059   0.75000
N          N       0.48605   0.62071   0.75000
O          O       0.62059   0.48529   0.75000
N          N       0.37929   0.86534   0.75000
O          O       0.51472   0.13531   0.75000
N          N       0.13466   0.51395   0.75000
O          O       0.86469   0.37941   0.75000
B          B       0.41200   0.58933   0.75000
B          B       0.41067   0.82267   0.75000
B          B       0.17733   0.58800   0.75000
B          B       0.58800   0.41067   0.75000
B          B       0.58933   0.17733   0.75000
B          B       0.82267   0.41200   0.75000
H          H       0.38298   0.38338   0.75000
H          H       0.61702   0.61662   0.75000
H          H       0.61662   0.99960   0.75000
H          H       0.00040   0.61702   0.75000
H          H       0.38338   0.00040   0.75000
H          H       0.99960   0.38298   0.75000
C          C       0.62804   0.25492   0.75000
C          C       0.74508   0.37312   0.75000
C          C       0.62688   0.37196   0.75000
C          C       0.70566   0.29551   0.75000
C          C       0.70449   0.41015   0.75000
C          C       0.58985   0.29435   0.75000
C          C       0.37196   0.74508   0.75000
C          C       0.25492   0.62688   0.75000
C          C       0.37312   0.62804   0.75000
C          C       0.29435   0.70449   0.75000
C          C       0.29551   0.58985   0.75000
C          C       0.41015   0.70566   0.75000
H          H       0.53359   0.26577   0.75000
H          H       0.73423   0.26782   0.75000
H          H       0.73219   0.46642   0.75000
H          H       0.46642   0.73423   0.75000
H          H       0.26577   0.73219   0.75000
H          H       0.26781   0.53359   0.75000
