data_crystal
 
_cell_length_a    30.64210
_cell_length_b    30.64210
_cell_length_c    3.93910
_cell_angle_alpha 90.00000
_cell_angle_beta  90.00000
_cell_angle_gamma 120.00000
 
_symmetry_space_group_name_Hall 'P 1'
_symmetry_space_group_name_H-M  'P 1'
 
loop_
_symmetry_equiv_pos_as_xyz
 'x,y,z' 
 
loop_
_atom_site_label
_atom_site_type_symbol
_atom_site_fract_x
_atom_site_fract_y
_atom_site_fract_z
_atom_site_charge
H          H       0.59376   0.64755   0.72189   0.0000000000
H          H       0.35245   0.94620   0.72189   0.0000000000
H          H       0.05380   0.40624   0.72189   0.0000000000
H          H       0.40624   0.35245   0.72189   0.0000000000
H          H       0.64755   0.05380   0.72189   0.0000000000
H          H       0.94620   0.59376   0.72189   0.0000000000
H          H       0.40624   0.35245   0.27811   0.0000000000
H          H       0.64755   0.05380   0.27811   0.0000000000
H          H       0.94620   0.59376   0.27811   0.0000000000
H          H       0.59376   0.64755   0.27811   0.0000000000
H          H       0.35245   0.94620   0.27811   0.0000000000
H          H       0.05380   0.40624   0.27811   0.0000000000
C          C       0.89728   0.41976   0.50000   0.0000000000
C          C       0.94785   0.46039   0.50000   0.0000000000
O          O       0.88778   0.37485   0.50000   0.0000000000
N          N       0.85734   0.42714   0.50000   0.0000000000
C          C       0.44891   0.96082   0.50000   0.0000000000
N          N       0.58211   0.18980   0.50000   0.0000000000
C          C       0.98795   0.44989   0.50000   0.0000000000
H          H       0.97991   0.41328   0.50000   0.0000000000
C          C       0.77281   0.40353   0.50000   0.0000000000
C          C       0.27981   0.63208   0.50000   0.0000000000
C          C       0.31486   0.61443   0.50000   0.0000000000
O          O       0.26978   0.70208   0.50000   0.0000000000
H          H       0.55567   0.19818   0.50000   0.0000000000
H          H       0.78432   0.44120   0.50000   0.0000000000
O          O       0.52407   0.60052   0.50000   0.0000000000
C          C       0.57209   0.64582   0.50000   0.0000000000
H          H       0.56637   0.67819   0.50000   0.0000000000
C          C       0.58024   0.47752   0.50000   0.0000000000
C          C       0.53961   0.48746   0.50000   0.0000000000
O          O       0.62515   0.51293   0.50000   0.0000000000
N          N       0.57286   0.43020   0.50000   0.0000000000
C          C       0.03918   0.48808   0.50000   0.0000000000
N          N       0.81020   0.39231   0.50000   0.0000000000
C          C       0.55011   0.53806   0.50000   0.0000000000
H          H       0.58672   0.56663   0.50000   0.0000000000
C          C       0.59647   0.36929   0.50000   0.0000000000
C          C       0.36792   0.64773   0.50000   0.0000000000
C          C       0.38557   0.70043   0.50000   0.0000000000
O          O       0.29792   0.56770   0.50000   0.0000000000
H          H       0.80182   0.35750   0.50000   0.0000000000
H          H       0.55880   0.34311   0.50000   0.0000000000
O          O       0.39948   0.92355   0.50000   0.0000000000
C          C       0.35418   0.92626   0.50000   0.0000000000
H          H       0.32181   0.88818   0.50000   0.0000000000
C          C       0.52248   0.10272   0.50000   0.0000000000
C          C       0.51254   0.05215   0.50000   0.0000000000
O          O       0.48707   0.11222   0.50000   0.0000000000
N          N       0.56980   0.14266   0.50000   0.0000000000
C          C       0.51192   0.55109   0.50000   0.0000000000
N          N       0.60769   0.41789   0.50000   0.0000000000
C          C       0.46194   0.01205   0.50000   0.0000000000
H          H       0.43337   0.02009   0.50000   0.0000000000
C          C       0.63071   0.22719   0.50000   0.0000000000
C          C       0.35227   0.72019   0.50000   0.0000000000
C          C       0.29957   0.68514   0.50000   0.0000000000
O          O       0.43230   0.73022   0.50000   0.0000000000
H          H       0.64250   0.44433   0.50000   0.0000000000
H          H       0.65689   0.21568   0.50000   0.0000000000
O          O       0.07645   0.47593   0.50000   0.0000000000
C          C       0.07374   0.42791   0.50000   0.0000000000
H          H       0.11182   0.43363   0.50000   0.0000000000
C          C       0.10272   0.58024   0.50000   0.0000000000
C          C       0.05215   0.53961   0.50000   0.0000000000
O          O       0.11222   0.62515   0.50000   0.0000000000
N          N       0.14266   0.57286   0.50000   0.0000000000
C          C       0.55109   0.03918   0.50000   0.0000000000
N          N       0.41789   0.81020   0.50000   0.0000000000
C          C       0.01205   0.55011   0.50000   0.0000000000
H          H       0.02009   0.58672   0.50000   0.0000000000
C          C       0.22719   0.59647   0.50000   0.0000000000
C          C       0.72019   0.36792   0.50000   0.0000000000
C          C       0.68514   0.38557   0.50000   0.0000000000
O          O       0.73022   0.29792   0.50000   0.0000000000
H          H       0.44433   0.80182   0.50000   0.0000000000
H          H       0.21568   0.55880   0.50000   0.0000000000
O          O       0.47593   0.39948   0.50000   0.0000000000
C          C       0.42791   0.35418   0.50000   0.0000000000
H          H       0.43363   0.32181   0.50000   0.0000000000
C          C       0.41976   0.52248   0.50000   0.0000000000
C          C       0.46039   0.51254   0.50000   0.0000000000
O          O       0.37485   0.48707   0.50000   0.0000000000
N          N       0.42714   0.56980   0.50000   0.0000000000
C          C       0.96082   0.51192   0.50000   0.0000000000
N          N       0.18980   0.60769   0.50000   0.0000000000
C          C       0.44989   0.46194   0.50000   0.0000000000
H          H       0.41328   0.43337   0.50000   0.0000000000
C          C       0.40353   0.63071   0.50000   0.0000000000
C          C       0.63208   0.35227   0.50000   0.0000000000
C          C       0.61443   0.29957   0.50000   0.0000000000
O          O       0.70208   0.43230   0.50000   0.0000000000
H          H       0.19818   0.64250   0.50000   0.0000000000
H          H       0.44120   0.65689   0.50000   0.0000000000
O          O       0.60052   0.07645   0.50000   0.0000000000
C          C       0.64582   0.07374   0.50000   0.0000000000
H          H       0.67819   0.11182   0.50000   0.0000000000
C          C       0.47752   0.89728   0.50000   0.0000000000
C          C       0.48746   0.94785   0.50000   0.0000000000
O          O       0.51293   0.88778   0.50000   0.0000000000
N          N       0.43020   0.85734   0.50000   0.0000000000
C          C       0.48808   0.44891   0.50000   0.0000000000
N          N       0.39231   0.58211   0.50000   0.0000000000
C          C       0.53806   0.98795   0.50000   0.0000000000
H          H       0.56663   0.97991   0.50000   0.0000000000
C          C       0.36929   0.77281   0.50000   0.0000000000
C          C       0.64773   0.27981   0.50000   0.0000000000
C          C       0.70043   0.31486   0.50000   0.0000000000
O          O       0.56770   0.26978   0.50000   0.0000000000
H          H       0.35750   0.55567   0.50000   0.0000000000
H          H       0.34311   0.78432   0.50000   0.0000000000
O          O       0.92355   0.52407   0.50000   0.0000000000
C          C       0.92626   0.57209   0.50000   0.0000000000
H          H       0.88818   0.56637   0.50000   0.0000000000
