data_crystal

_cell_length_a    30.64210
_cell_length_b    30.64210
_cell_length_c    7.87820
_cell_angle_alpha 90.00000
_cell_angle_beta  90.00000
_cell_angle_gamma 120.00000

_space_group_name_Hall 'P 1'
_space_group_name_H-M_alt  'P 1'

loop_
_symmetry_equiv_pos_as_xyz
'x,y,z'

loop_
_atom_site_label
_atom_site_type_symbol
_atom_site_fract_x
_atom_site_fract_y
_atom_site_fract_z
H          H       0.59376   0.64755   0.36095
H          H       0.35245   0.94620   0.36095
H          H       0.05380   0.40624   0.36095
H          H       0.40624   0.35245   0.36095
H          H       0.64755   0.05380   0.36095
H          H       0.94620   0.59376   0.36095
H          H       0.40624   0.35245   0.13906
H          H       0.64755   0.05380   0.13906
H          H       0.94620   0.59376   0.13906
H          H       0.59376   0.64755   0.13906
H          H       0.35245   0.94620   0.13906
H          H       0.05380   0.40624   0.13906
C          C       0.89728   0.41976   0.25000
C          C       0.94785   0.46039   0.25000
O          O       0.88778   0.37485   0.25000
N          N       0.85734   0.42714   0.25000
C          C       0.44891   0.96082   0.25000
N          N       0.58211   0.18980   0.25000
C          C       0.98795   0.44989   0.25000
H          H       0.97991   0.41328   0.25000
C          C       0.77281   0.40353   0.25000
C          C       0.27981   0.63208   0.25000
C          C       0.31486   0.61443   0.25000
O          O       0.26978   0.70208   0.25000
H          H       0.55567   0.19818   0.25000
H          H       0.78432   0.44120   0.25000
O          O       0.52407   0.60052   0.25000
C          C       0.57209   0.64582   0.25000
H          H       0.56637   0.67819   0.25000
C          C       0.58024   0.47752   0.25000
C          C       0.53961   0.48746   0.25000
O          O       0.62515   0.51293   0.25000
N          N       0.57286   0.43020   0.25000
C          C       0.03918   0.48808   0.25000
N          N       0.81020   0.39231   0.25000
C          C       0.55011   0.53806   0.25000
H          H       0.58672   0.56663   0.25000
C          C       0.59647   0.36929   0.25000
C          C       0.36792   0.64773   0.25000
C          C       0.38557   0.70043   0.25000
O          O       0.29792   0.56770   0.25000
H          H       0.80182   0.35750   0.25000
H          H       0.55880   0.34311   0.25000
O          O       0.39948   0.92355   0.25000
C          C       0.35418   0.92626   0.25000
H          H       0.32181   0.88818   0.25000
C          C       0.52248   0.10272   0.25000
C          C       0.51254   0.05215   0.25000
O          O       0.48707   0.11222   0.25000
N          N       0.56980   0.14266   0.25000
C          C       0.51192   0.55109   0.25000
N          N       0.60769   0.41789   0.25000
C          C       0.46194   0.01205   0.25000
H          H       0.43337   0.02009   0.25000
C          C       0.63071   0.22719   0.25000
C          C       0.35227   0.72019   0.25000
C          C       0.29957   0.68514   0.25000
O          O       0.43230   0.73022   0.25000
H          H       0.64250   0.44433   0.25000
H          H       0.65689   0.21568   0.25000
O          O       0.07645   0.47593   0.25000
C          C       0.07374   0.42791   0.25000
H          H       0.11182   0.43363   0.25000
C          C       0.10272   0.58024   0.25000
C          C       0.05215   0.53961   0.25000
O          O       0.11222   0.62515   0.25000
N          N       0.14266   0.57286   0.25000
C          C       0.55109   0.03918   0.25000
N          N       0.41789   0.81020   0.25000
C          C       0.01205   0.55011   0.25000
H          H       0.02009   0.58672   0.25000
C          C       0.22719   0.59647   0.25000
C          C       0.72019   0.36792   0.25000
C          C       0.68514   0.38557   0.25000
O          O       0.73022   0.29792   0.25000
H          H       0.44433   0.80182   0.25000
H          H       0.21568   0.55880   0.25000
O          O       0.47593   0.39948   0.25000
C          C       0.42791   0.35418   0.25000
H          H       0.43363   0.32181   0.25000
C          C       0.41976   0.52248   0.25000
C          C       0.46039   0.51254   0.25000
O          O       0.37485   0.48707   0.25000
N          N       0.42714   0.56980   0.25000
C          C       0.96082   0.51192   0.25000
N          N       0.18980   0.60769   0.25000
C          C       0.44989   0.46194   0.25000
H          H       0.41328   0.43337   0.25000
C          C       0.40353   0.63071   0.25000
C          C       0.63208   0.35227   0.25000
C          C       0.61443   0.29957   0.25000
O          O       0.70208   0.43230   0.25000
H          H       0.19818   0.64250   0.25000
H          H       0.44120   0.65689   0.25000
O          O       0.60052   0.07645   0.25000
C          C       0.64582   0.07374   0.25000
H          H       0.67819   0.11182   0.25000
C          C       0.47752   0.89728   0.25000
C          C       0.48746   0.94785   0.25000
O          O       0.51293   0.88778   0.25000
N          N       0.43020   0.85734   0.25000
C          C       0.48808   0.44891   0.25000
N          N       0.39231   0.58211   0.25000
C          C       0.53806   0.98795   0.25000
H          H       0.56663   0.97991   0.25000
C          C       0.36929   0.77281   0.25000
C          C       0.64773   0.27981   0.25000
C          C       0.70043   0.31486   0.25000
O          O       0.56770   0.26978   0.25000
H          H       0.35750   0.55567   0.25000
H          H       0.34311   0.78432   0.25000
O          O       0.92355   0.52407   0.25000
C          C       0.92626   0.57209   0.25000
H          H       0.88818   0.56637   0.25000
H          H       0.59376   0.64755   0.86094
H          H       0.35245   0.94620   0.86094
H          H       0.05380   0.40624   0.86094
H          H       0.40624   0.35245   0.86094
H          H       0.64755   0.05380   0.86094
H          H       0.94620   0.59376   0.86094
H          H       0.40624   0.35245   0.63906
H          H       0.64755   0.05380   0.63906
H          H       0.94620   0.59376   0.63906
H          H       0.59376   0.64755   0.63906
H          H       0.35245   0.94620   0.63906
H          H       0.05380   0.40624   0.63906
C          C       0.89728   0.41976   0.75000
C          C       0.94785   0.46039   0.75000
O          O       0.88778   0.37485   0.75000
N          N       0.85734   0.42714   0.75000
C          C       0.44891   0.96082   0.75000
N          N       0.58211   0.18980   0.75000
C          C       0.98795   0.44989   0.75000
H          H       0.97991   0.41328   0.75000
C          C       0.77281   0.40353   0.75000
C          C       0.27981   0.63208   0.75000
C          C       0.31486   0.61443   0.75000
O          O       0.26978   0.70208   0.75000
H          H       0.55567   0.19818   0.75000
H          H       0.78432   0.44120   0.75000
O          O       0.52407   0.60052   0.75000
C          C       0.57209   0.64582   0.75000
H          H       0.56637   0.67819   0.75000
C          C       0.58024   0.47752   0.75000
C          C       0.53961   0.48746   0.75000
O          O       0.62515   0.51293   0.75000
N          N       0.57286   0.43020   0.75000
C          C       0.03918   0.48808   0.75000
N          N       0.81020   0.39231   0.75000
C          C       0.55011   0.53806   0.75000
H          H       0.58672   0.56663   0.75000
C          C       0.59647   0.36929   0.75000
C          C       0.36792   0.64773   0.75000
C          C       0.38557   0.70043   0.75000
O          O       0.29792   0.56770   0.75000
H          H       0.80182   0.35750   0.75000
H          H       0.55880   0.34311   0.75000
O          O       0.39948   0.92355   0.75000
C          C       0.35418   0.92626   0.75000
H          H       0.32181   0.88818   0.75000
C          C       0.52248   0.10272   0.75000
C          C       0.51254   0.05215   0.75000
O          O       0.48707   0.11222   0.75000
N          N       0.56980   0.14266   0.75000
C          C       0.51192   0.55109   0.75000
N          N       0.60769   0.41789   0.75000
C          C       0.46194   0.01205   0.75000
H          H       0.43337   0.02009   0.75000
C          C       0.63071   0.22719   0.75000
C          C       0.35227   0.72019   0.75000
C          C       0.29957   0.68514   0.75000
O          O       0.43230   0.73022   0.75000
H          H       0.64250   0.44433   0.75000
H          H       0.65689   0.21568   0.75000
O          O       0.07645   0.47593   0.75000
C          C       0.07374   0.42791   0.75000
H          H       0.11182   0.43363   0.75000
C          C       0.10272   0.58024   0.75000
C          C       0.05215   0.53961   0.75000
O          O       0.11222   0.62515   0.75000
N          N       0.14266   0.57286   0.75000
C          C       0.55109   0.03918   0.75000
N          N       0.41789   0.81020   0.75000
C          C       0.01205   0.55011   0.75000
H          H       0.02009   0.58672   0.75000
C          C       0.22719   0.59647   0.75000
C          C       0.72019   0.36792   0.75000
C          C       0.68514   0.38557   0.75000
O          O       0.73022   0.29792   0.75000
H          H       0.44433   0.80182   0.75000
H          H       0.21568   0.55880   0.75000
O          O       0.47593   0.39948   0.75000
C          C       0.42791   0.35418   0.75000
H          H       0.43363   0.32181   0.75000
C          C       0.41976   0.52248   0.75000
C          C       0.46039   0.51254   0.75000
O          O       0.37485   0.48707   0.75000
N          N       0.42714   0.56980   0.75000
C          C       0.96082   0.51192   0.75000
N          N       0.18980   0.60769   0.75000
C          C       0.44989   0.46194   0.75000
H          H       0.41328   0.43337   0.75000
C          C       0.40353   0.63071   0.75000
C          C       0.63208   0.35227   0.75000
C          C       0.61443   0.29957   0.75000
O          O       0.70208   0.43230   0.75000
H          H       0.19818   0.64250   0.75000
H          H       0.44120   0.65689   0.75000
O          O       0.60052   0.07645   0.75000
C          C       0.64582   0.07374   0.75000
H          H       0.67819   0.11182   0.75000
C          C       0.47752   0.89728   0.75000
C          C       0.48746   0.94785   0.75000
O          O       0.51293   0.88778   0.75000
N          N       0.43020   0.85734   0.75000
C          C       0.48808   0.44891   0.75000
N          N       0.39231   0.58211   0.75000
C          C       0.53806   0.98795   0.75000
H          H       0.56663   0.97991   0.75000
C          C       0.36929   0.77281   0.75000
C          C       0.64773   0.27981   0.75000
C          C       0.70043   0.31486   0.75000
O          O       0.56770   0.26978   0.75000
H          H       0.35750   0.55567   0.75000
H          H       0.34311   0.78432   0.75000
O          O       0.92355   0.52407   0.75000
C          C       0.92626   0.57209   0.75000
H          H       0.88818   0.56637   0.75000
H          H       0.59855   0.13754   0.25481
H          H       0.53933   0.40255   0.24859
H          H       0.86626   0.45833   0.24739
H          H       0.40359   0.86116   0.24566
H          H       0.45546   0.60037   0.25029
H          H       0.14013   0.54291   0.25338
H          H       0.13263   0.53964   0.77405
H          H       0.38773   0.85388   0.73588
H          H       0.54414   0.40067   0.76343
H          H       0.45547   0.59107   0.74339
H          H       0.59000   0.13719   0.76273
H          H       0.86399   0.46864   0.71759
