data_crystal
 
_cell_length_a    37.40890
_cell_length_b    37.40890
_cell_length_c    10.02360
_cell_angle_alpha 90.00000
_cell_angle_beta  90.00000
_cell_angle_gamma 120.00000
 
_space_group_name_Hall 'P 1'
_space_group_name_H-M_alt  'P 1'
 
loop_
_symmetry_equiv_pos_as_xyz
 'x,y,z' 
 
loop_
_atom_site_label
_atom_site_type_symbol
_atom_site_fract_x
_atom_site_fract_y
_atom_site_fract_z
C          C       0.31667   0.13620  -0.18285 
C          C       0.35992   0.16060  -0.16756 
C          C       0.37691   0.19311  -0.07435 
C          C       0.34955   0.19957   0.00233 
C          C       0.30769   0.17566  -0.01003 
C          C       0.28945   0.14344  -0.10382 
C          C       0.24390   0.11840  -0.12291 
C          C       0.42185   0.21923  -0.05833 
C          C       0.21890   0.13663  -0.11596 
C          C       0.17621   0.11302  -0.13573 
C          C       0.15751   0.07057  -0.16536 
C          C       0.18254   0.05249  -0.17367 
C          C       0.22512   0.07597  -0.15188 
C          C       0.44367   0.20606   0.02246 
C          C       0.48634   0.23118   0.03950 
C          C       0.50791   0.26951  -0.02664 
C          C       0.48567   0.28266  -0.10608 
C          C       0.44293   0.25781  -0.12130 
N          N       0.35866   0.23075   0.09811 
C          C       0.31827   0.22230   0.13781 
N          N       0.28809   0.19041   0.07855 
C          C       0.31080   0.24861   0.23469 
N          N       0.34992   0.28258   0.28538 
C          C       0.34572   0.31952   0.29029 
C          C       0.30235   0.30762   0.24473 
C          C       0.28767   0.26781   0.16906 
N          N       0.11367   0.04504  -0.18746 
N          N       0.55190   0.29586  -0.01270 
C          C       0.08365   0.05714  -0.15557 
C          C       0.57890   0.28072   0.02753 
C          C       0.04359   0.02967  -0.12863 
C          C       0.61898   0.30583   0.06043 
C          C       0.01378   0.04463  -0.11240 
C          C       0.64637   0.28804   0.07762 
O          O       0.02630   0.08041  -0.07913 
O          O       0.63167   0.25198   0.11129 
H          H       0.30470   0.11237  -0.25873 
H          H       0.37999   0.15451  -0.22966 
H          H       0.23221   0.16936  -0.09771 
H          H       0.15855   0.12863  -0.12946 
H          H       0.16891   0.01987  -0.19581 
H          H       0.24329   0.06074  -0.15667 
H          H       0.42758   0.17653   0.07312 
H          H       0.50216   0.22066   0.10530 
H          H       0.50151   0.31223  -0.15665 
H          H       0.42633   0.26866  -0.18194 
H          H       0.38735   0.25637   0.12038 
H          H       0.29196   0.22891   0.31930 
H          H       0.35481   0.27540   0.38224 
H          H       0.36879   0.34306   0.22131 
H          H       0.35161   0.33287   0.39274 
H          H       0.30232   0.33193   0.18069 
H          H       0.28217   0.30204   0.33314 
H          H       0.29654   0.27498   0.06210 
H          H       0.25361   0.24736   0.17705 
H          H       0.10348   0.01620  -0.23168 
H          H       0.56490   0.32571  -0.05176 
H          H       0.09293   0.08953  -0.16074 
H          H       0.56733   0.24779   0.02046 
C          C       0.86380   0.18047  -0.18285 
C          C       0.83940   0.19932  -0.16756 
C          C       0.80689   0.18380  -0.07435 
C          C       0.80043   0.14998   0.00233 
C          C       0.82434   0.13203  -0.01003 
C          C       0.85656   0.14601  -0.10382 
C          C       0.88160   0.12550  -0.12291 
C          C       0.78077   0.20262  -0.05833 
C          C       0.86337   0.08227  -0.11596 
C          C       0.88698   0.06319  -0.13573 
C          C       0.92943   0.08694  -0.16536 
C          C       0.94751   0.13005  -0.17367 
C          C       0.92403   0.14915  -0.15188 
C          C       0.79394   0.23761   0.02246 
C          C       0.76882   0.25516   0.03950 
C          C       0.73049   0.23840  -0.02664 
C          C       0.71734   0.20301  -0.10608 
C          C       0.74219   0.18512  -0.12130 
N          N       0.76925   0.12791   0.09811 
C          C       0.77770   0.09597   0.13781 
N          N       0.80959   0.09768   0.07855 
C          C       0.75139   0.06219   0.23469 
N          N       0.71742   0.06734   0.28538 
C          C       0.68048   0.02620   0.29029 
C          C       0.69238   0.99473   0.24473 
C          C       0.73219   0.01986   0.16906 
N          N       0.95496   0.06863  -0.18746 
N          N       0.70414   0.25604  -0.01270 
C          C       0.94286   0.02651  -0.15557 
C          C       0.71928   0.29818   0.02753 
C          C       0.97033   0.01392  -0.12863 
C          C       0.69417   0.31315   0.06043 
C          C       0.95537   0.96915  -0.11240 
C          C       0.71196   0.35833   0.07762 
O          O       0.91959   0.94589  -0.07913 
O          O       0.74802   0.37969   0.11129 
H          H       0.88763   0.19233  -0.25873 
H          H       0.84549   0.22548  -0.22966 
H          H       0.83064   0.06285  -0.09771 
H          H       0.87137   0.02992  -0.12946 
H          H       0.98013   0.14904  -0.19581 
H          H       0.93926   0.18255  -0.15667 
H          H       0.82347   0.25105   0.07312 
H          H       0.77934   0.28150   0.10530 
H          H       0.68777   0.18928  -0.15665 
H          H       0.73134   0.15767  -0.18194 
H          H       0.74363   0.13098   0.12038 
H          H       0.77109   0.06305   0.31930 
H          H       0.72460   0.07941   0.38224 
H          H       0.65694   0.02573   0.22131 
H          H       0.66713   0.01874   0.39274 
H          H       0.66807   0.97039   0.18069 
H          H       0.69796   0.98013   0.33314 
H          H       0.72502   0.02156   0.06210 
H          H       0.75264   0.00625   0.17705 
H          H       0.98380   0.08728  -0.23168 
H          H       0.67429   0.23919  -0.05176 
H          H       0.91047   0.00340  -0.16074 
H          H       0.75221   0.31954   0.02046 
C          C       0.81953   0.68333  -0.18285 
C          C       0.80068   0.64008  -0.16756 
C          C       0.81620   0.62309  -0.07435 
C          C       0.85002   0.65045   0.00233 
C          C       0.86797   0.69231  -0.01003 
C          C       0.85399   0.71055  -0.10382 
C          C       0.87450   0.75610  -0.12291 
C          C       0.79738   0.57815  -0.05833 
C          C       0.91773   0.78110  -0.11596 
C          C       0.93681   0.82379  -0.13573 
C          C       0.91306   0.84249  -0.16536 
C          C       0.86995   0.81746  -0.17367 
C          C       0.85085   0.77488  -0.15188 
C          C       0.76239   0.55633   0.02246 
C          C       0.74484   0.51366   0.03950 
C          C       0.76160   0.49209  -0.02664 
C          C       0.79699   0.51433  -0.10608 
C          C       0.81488   0.55707  -0.12130 
N          N       0.87209   0.64134   0.09811 
C          C       0.90403   0.68173   0.13781 
N          N       0.90232   0.71191   0.07855 
C          C       0.93781   0.68920   0.23469 
N          N       0.93266   0.65008   0.28538 
C          C       0.97380   0.65428   0.29029 
C          C       0.00527   0.69765   0.24473 
C          C       0.98014   0.71233   0.16906 
N          N       0.93137   0.88633  -0.18746 
N          N       0.74396   0.44810  -0.01270 
C          C       0.97349   0.91635  -0.15557 
C          C       0.70182   0.42110   0.02753 
C          C       0.98608   0.95641  -0.12863 
C          C       0.68685   0.38102   0.06043 
C          C       0.03085   0.98622  -0.11240 
C          C       0.64167   0.35363   0.07762 
O          O       0.05411   0.97370  -0.07913 
O          O       0.62031   0.36833   0.11129 
H          H       0.80767   0.69530  -0.25873 
H          H       0.77452   0.62001  -0.22966 
H          H       0.93715   0.76779  -0.09771 
H          H       0.97008   0.84145  -0.12946 
H          H       0.85096   0.83109  -0.19581 
H          H       0.81745   0.75671  -0.15667 
H          H       0.74895   0.57242   0.07312 
H          H       0.71850   0.49784   0.10530 
H          H       0.81072   0.49849  -0.15665 
H          H       0.84233   0.57367  -0.18194 
H          H       0.86902   0.61265   0.12038 
H          H       0.93695   0.70804   0.31930 
H          H       0.92059   0.64519   0.38224 
H          H       0.97427   0.63121   0.22131 
H          H       0.98126   0.64839   0.39274 
H          H       0.02961   0.69768   0.18069 
H          H       0.01987   0.71783   0.33314 
H          H       0.97844   0.70346   0.06210 
H          H       0.99375   0.74639   0.17705 
H          H       0.91272   0.89652  -0.23168 
H          H       0.76081   0.43510  -0.05176 
H          H       0.99660   0.90707  -0.16074 
H          H       0.68046   0.43267   0.02046 
C          C       0.31667   0.13620   0.31715 
C          C       0.35992   0.16060   0.33244 
C          C       0.37691   0.19311   0.42565 
C          C       0.34955   0.19957   0.50233 
C          C       0.30769   0.17566   0.48997 
C          C       0.28945   0.14344   0.39618 
C          C       0.24390   0.11840   0.37709 
C          C       0.42185   0.21923   0.44167 
C          C       0.21890   0.13663   0.38404 
C          C       0.17621   0.11302   0.36428 
C          C       0.15751   0.07057   0.33464 
C          C       0.18254   0.05249   0.32633 
C          C       0.22512   0.07597   0.34812 
C          C       0.44367   0.20606   0.52246 
C          C       0.48634   0.23118   0.53950 
C          C       0.50791   0.26951   0.47336 
C          C       0.48567   0.28266   0.39392 
C          C       0.44293   0.25781   0.37870 
N          N       0.35866   0.23075   0.59811 
C          C       0.31827   0.22230   0.63780 
N          N       0.28809   0.19041   0.57854 
C          C       0.31080   0.24861   0.73469 
N          N       0.34992   0.28258   0.78538 
C          C       0.34572   0.31952   0.79029 
C          C       0.30235   0.30762   0.74473 
C          C       0.28767   0.26781   0.66905 
N          N       0.11367   0.04504   0.31254 
N          N       0.55190   0.29586   0.48730 
C          C       0.08365   0.05714   0.34443 
C          C       0.57890   0.28072   0.52753 
C          C       0.04359   0.02967   0.37137 
C          C       0.61898   0.30583   0.56043 
C          C       0.01378   0.04463   0.38760 
C          C       0.64637   0.28804   0.57762 
O          O       0.02630   0.08041   0.42086 
O          O       0.63167   0.25198   0.61129 
H          H       0.30470   0.11237   0.24127 
H          H       0.37999   0.15451   0.27034 
H          H       0.23221   0.16936   0.40229 
H          H       0.15855   0.12863   0.37054 
H          H       0.16891   0.01987   0.30418 
H          H       0.24329   0.06074   0.34333 
H          H       0.42758   0.17653   0.57312 
H          H       0.50216   0.22066   0.60530 
H          H       0.50151   0.31223   0.34335 
H          H       0.42633   0.26866   0.31805 
H          H       0.38735   0.25637   0.62038 
H          H       0.29196   0.22891   0.81930 
H          H       0.35481   0.27540   0.88224 
H          H       0.36879   0.34306   0.72131 
H          H       0.35161   0.33287   0.89274 
H          H       0.30232   0.33193   0.68069 
H          H       0.28217   0.30204   0.83314 
H          H       0.29654   0.27498   0.56210 
H          H       0.25361   0.24736   0.67705 
H          H       0.10348   0.01620   0.26832 
H          H       0.56490   0.32571   0.44824 
H          H       0.09293   0.08953   0.33925 
H          H       0.56733   0.24779   0.52046 
C          C       0.86380   0.18047   0.31715 
C          C       0.83940   0.19932   0.33244 
C          C       0.80689   0.18380   0.42565 
C          C       0.80043   0.14998   0.50233 
C          C       0.82434   0.13203   0.48997 
C          C       0.85656   0.14601   0.39618 
C          C       0.88160   0.12550   0.37709 
C          C       0.78077   0.20262   0.44167 
C          C       0.86337   0.08227   0.38404 
C          C       0.88698   0.06319   0.36428 
C          C       0.92943   0.08694   0.33464 
C          C       0.94751   0.13005   0.32633 
C          C       0.92403   0.14915   0.34812 
C          C       0.79394   0.23761   0.52246 
C          C       0.76882   0.25516   0.53950 
C          C       0.73049   0.23840   0.47336 
C          C       0.71734   0.20301   0.39392 
C          C       0.74219   0.18512   0.37870 
N          N       0.76925   0.12791   0.59811 
C          C       0.77770   0.09597   0.63780 
N          N       0.80959   0.09768   0.57854 
C          C       0.75139   0.06219   0.73469 
N          N       0.71742   0.06734   0.78538 
C          C       0.68048   0.02620   0.79029 
C          C       0.69238   0.99473   0.74473 
C          C       0.73219   0.01986   0.66905 
N          N       0.95496   0.06863   0.31254 
N          N       0.70414   0.25604   0.48730 
C          C       0.94286   0.02651   0.34443 
C          C       0.71928   0.29818   0.52753 
C          C       0.97033   0.01392   0.37137 
C          C       0.69417   0.31315   0.56043 
C          C       0.95537   0.96915   0.38760 
C          C       0.71196   0.35833   0.57762 
O          O       0.91959   0.94589   0.42086 
O          O       0.74802   0.37969   0.61129 
H          H       0.88763   0.19233   0.24127 
H          H       0.84549   0.22548   0.27034 
H          H       0.83064   0.06285   0.40229 
H          H       0.87137   0.02992   0.37054 
H          H       0.98013   0.14904   0.30418 
H          H       0.93926   0.18255   0.34333 
H          H       0.82347   0.25105   0.57312 
H          H       0.77934   0.28150   0.60530 
H          H       0.68777   0.18928   0.34335 
H          H       0.73134   0.15767   0.31805 
H          H       0.74363   0.13098   0.62038 
H          H       0.77109   0.06305   0.81930 
H          H       0.72460   0.07941   0.88224 
H          H       0.65694   0.02573   0.72131 
H          H       0.66713   0.01874   0.89274 
H          H       0.66807   0.97039   0.68069 
H          H       0.69796   0.98013   0.83314 
H          H       0.72502   0.02156   0.56210 
H          H       0.75264   0.00625   0.67705 
H          H       0.98380   0.08728   0.26832 
H          H       0.67429   0.23919   0.44824 
H          H       0.91047   0.00340   0.33925 
H          H       0.75221   0.31954   0.52046 
C          C       0.81953   0.68333   0.31715 
C          C       0.80068   0.64008   0.33244 
C          C       0.81620   0.62309   0.42565 
C          C       0.85002   0.65045   0.50233 
C          C       0.86797   0.69231   0.48997 
C          C       0.85399   0.71055   0.39618 
C          C       0.87450   0.75610   0.37709 
C          C       0.79738   0.57815   0.44167 
C          C       0.91773   0.78110   0.38404 
C          C       0.93681   0.82379   0.36428 
C          C       0.91306   0.84249   0.33464 
C          C       0.86995   0.81746   0.32633 
C          C       0.85085   0.77488   0.34812 
C          C       0.76239   0.55633   0.52246 
C          C       0.74484   0.51366   0.53950 
C          C       0.76160   0.49209   0.47336 
C          C       0.79699   0.51433   0.39392 
C          C       0.81488   0.55707   0.37870 
N          N       0.87209   0.64134   0.59811 
C          C       0.90403   0.68173   0.63780 
N          N       0.90232   0.71191   0.57854 
C          C       0.93781   0.68920   0.73469 
N          N       0.93266   0.65008   0.78538 
C          C       0.97380   0.65428   0.79029 
C          C       0.00527   0.69765   0.74473 
C          C       0.98014   0.71233   0.66905 
N          N       0.93137   0.88633   0.31254 
N          N       0.74396   0.44810   0.48730 
C          C       0.97349   0.91635   0.34443 
C          C       0.70182   0.42110   0.52753 
C          C       0.98608   0.95641   0.37137 
C          C       0.68685   0.38102   0.56043 
C          C       0.03085   0.98622   0.38760 
C          C       0.64167   0.35363   0.57762 
O          O       0.05411   0.97370   0.42086 
O          O       0.62031   0.36833   0.61129 
H          H       0.80767   0.69530   0.24127 
H          H       0.77452   0.62001   0.27034 
H          H       0.93715   0.76779   0.40229 
H          H       0.97008   0.84145   0.37054 
H          H       0.85096   0.83109   0.30418 
H          H       0.81745   0.75671   0.34333 
H          H       0.74895   0.57242   0.57312 
H          H       0.71850   0.49784   0.60530 
H          H       0.81072   0.49849   0.34335 
H          H       0.84233   0.57367   0.31805 
H          H       0.86902   0.61265   0.62038 
H          H       0.93695   0.70804   0.81930 
H          H       0.92059   0.64519   0.88224 
H          H       0.97427   0.63121   0.72131 
H          H       0.98126   0.64839   0.89274 
H          H       0.02961   0.69768   0.68069 
H          H       0.01987   0.71783   0.83314 
H          H       0.97844   0.70346   0.56210 
H          H       0.99375   0.74639   0.67705 
H          H       0.91272   0.89652   0.26832 
H          H       0.76081   0.43510   0.44824 
H          H       0.99660   0.90707   0.33925 
H          H       0.68046   0.43267   0.52046 
