data_crystal
 
_cell_length_a    22.60290
_cell_length_b    21.24380
_cell_length_c    5.72510
_cell_angle_alpha 77.16260
_cell_angle_beta  91.67460
_cell_angle_gamma 86.02380
 
_symmetry_space_group_name_Hall 'P 1'
_symmetry_space_group_name_H-M  'P 1'
 
loop_
_symmetry_equiv_pos_as_xyz
 'x,y,z' 
 
loop_
_atom_site_label
_atom_site_type_symbol
_atom_site_fract_x
_atom_site_fract_y
_atom_site_fract_z
_atom_site_charge
H          H       0.95331   0.88695   5.25670   0.0000000000
C          C       0.05916   0.16379   4.61839   0.0000000000
C          C       0.03098   0.10565   4.65266   0.0000000000
H          H       1.03825   0.20510   4.51299   0.0000000000
H          H       0.99044   0.10664   4.56923   0.0000000000
C          C       0.04458   0.90677   4.62013   0.0000000000
C          C       0.06872   0.84478   4.60767   0.0000000000
H          H       0.01834   0.93353   4.47974   0.0000000000
H          H       0.05754   0.82713   4.46216   0.0000000000
C          C       0.87086   0.06622   4.84292   0.0000000000
C          C       0.84066   0.12401   4.87051   0.0000000000
H          H       0.84976   0.04046   4.73988   0.0000000000
H          H       0.79925   0.13740   4.79002   0.0000000000
C          C       0.90065   0.82910   5.09773   0.0000000000
C          C       0.93112   0.88441   5.10221   0.0000000000
H          H       0.90160   0.79285   5.24960   0.0000000000
H          H      -0.00717   0.06909   5.18674   0.0000000000
C          C       0.05649   0.04728   4.80306   0.0000000000
C          C       0.11387   0.04946   4.90718   0.0000000000
C          C       0.14292   0.10708   4.87019   0.0000000000
C          C       0.11542   0.16525   4.72808   0.0000000000
H          H       0.13549   0.00956   5.01576   0.0000000000
H          H       0.18382   0.10638   4.95235   0.0000000000
C          C       0.02447   0.99051   4.84692   0.0000000000
C          C       0.05514   0.93164   4.82526   0.0000000000
C          C       0.10798   0.80795   4.79195   0.0000000000
C          C       0.12061   0.83381   4.99257   0.0000000000
C          C       0.09387   0.89427   5.01034   0.0000000000
H          H       0.10277   0.91055   5.16122   0.0000000000
H          H       0.14916   0.80853   5.12860   0.0000000000
C          C       0.33852   0.48617   4.73560   0.0000000000
C          C       0.37047   0.45655   4.95247   0.0000000000
C          C       0.43197   0.46152   4.97692   0.0000000000
C          C       0.46301   0.49560   4.78368   0.0000000000
C          C       0.43094   0.52551   4.56721   0.0000000000
C          C       0.36937   0.52106   4.54379   0.0000000000
C          C       0.56313   0.47368   4.65317   0.0000000000
C          C       0.52484   0.49930   4.80571   0.0000000000
C          C       0.54978   0.52841   4.98088   0.0000000000
C          C       0.61155   0.53154   5.00378   0.0000000000
C          C       0.65003   0.50546   4.85278   0.0000000000
C          C       0.62491   0.47668   4.67668   0.0000000000
N          N       0.27885   0.48064   4.71095   0.0000000000
C          C       0.24209   0.53577   4.69506   0.0000000000
C          C       0.24669   0.57399   4.86734   0.0000000000
C          C       0.21022   0.63137   4.84846   0.0000000000
C          C       0.16729   0.65257   4.65706   0.0000000000
C          C       0.16192   0.61388   4.48672   0.0000000000
C          C       0.19873   0.55658   4.50522   0.0000000000
C          C       0.29207   0.37451   4.61161   0.0000000000
C          C       0.25796   0.42157   4.70325   0.0000000000
C          C       0.20165   0.40447   4.78920   0.0000000000
C          C       0.18069   0.34386   4.78466   0.0000000000
C          C       0.21589   0.29708   4.69809   0.0000000000
C          C       0.27186   0.31346   4.61081   0.0000000000
C          C       0.71971   0.61488   4.63172   0.0000000000
C          C       0.73177   0.56764   4.84755   0.0000000000
N          N       0.71027   0.50785   4.87609   0.0000000000
C          C       0.76766   0.58312   5.03009   0.0000000000
C          C       0.79168   0.64369   4.99602   0.0000000000
C          C       0.78043   0.69068   4.77840   0.0000000000
C          C       0.74364   0.67538   4.59780   0.0000000000
C          C       0.73049   0.39222   5.05183   0.0000000000
C          C       0.74796   0.45220   4.91858   0.0000000000
C          C       0.80578   0.45203   4.82796   0.0000000000
C          C       0.84370   0.39507   4.86501   0.0000000000
C          C       0.82462   0.33540   4.98913   0.0000000000
C          C       0.76767   0.33475   5.08427   0.0000000000
C          C       0.13108   0.71070   4.63171   0.0000000000
C          C       0.19748   0.23489   4.70308   0.0000000000
C          C       0.80486   0.75122   4.73559   0.0000000000
C          C       0.86180   0.27850   5.00937   0.0000000000
N          N       0.13562   0.74947   4.78883   0.0000000000
N          N       0.83877   0.22226   4.99657   0.0000000000
N          N       0.84067   0.76880   4.89976   0.0000000000
N          N       0.13951   0.22299   4.69842   0.0000000000
H          H       0.34893   0.43125   5.09363   0.0000000000
H          H       0.45396   0.43956   5.13618   0.0000000000
H          H       0.45209   0.55098   4.42508   0.0000000000
H          H       0.34712   0.54306   4.38547   0.0000000000
H          H       0.54638   0.45222   4.52477   0.0000000000
H          H       0.52316   0.54782   5.09253   0.0000000000
H          H       0.62846   0.55280   5.13229   0.0000000000
H          H       0.65166   0.45775   4.56409   0.0000000000
H          H       0.27693   0.56016   5.00894   0.0000000000
H          H       0.21571   0.65750   4.97655   0.0000000000
H          H       0.13126   0.62724   4.34599   0.0000000000
H          H       0.19396   0.53010   4.37779   0.0000000000
H          H       0.33266   0.38412   4.54415   0.0000000000
H          H       0.17520   0.43609   4.85896   0.0000000000
H          H       0.13980   0.33392   4.84919   0.0000000000
H          H       0.29855   0.28107   4.54519   0.0000000000
H          H       0.69381   0.60515   4.49641   0.0000000000
H          H       0.77667   0.55005   5.18891   0.0000000000
H          H       0.81770   0.65283   5.13207   0.0000000000
H          H       0.73406   0.70807   4.43828   0.0000000000
H          H       0.68992   0.38966   5.12648   0.0000000000
H          H       0.82093   0.49370   4.73053   0.0000000000
H          H       0.88500   0.39748   4.79594   0.0000000000
H          H       0.75275   0.29248   5.17844   0.0000000000
H          H       0.10100   0.72406   4.48929   0.0000000000
H          H       0.22913   0.19761   4.70848   0.0000000000
H          H       0.79523   0.78273   4.57388   0.0000000000
H          H       0.90688   0.28087   5.01827   0.0000000000
C          C       0.92878   0.04560   4.94717   0.0000000000
C          C       0.86787   0.16426   4.99895   0.0000000000
C          C       0.92378   0.14283   5.11597   0.0000000000
C          C       0.95282   0.08356   5.09596   0.0000000000
H          H       0.94372   0.17056   5.21497   0.0000000000
C          C       0.96243   0.99097   4.89843   0.0000000000
C          C       0.93129   0.93535   4.89657   0.0000000000
C          C       0.90072   0.92905   4.68498   0.0000000000
C          C       0.86938   0.87437   4.68157   0.0000000000
C          C       0.86906   0.82350   4.88816   0.0000000000
H          H       0.90093   0.96449   4.53112   0.0000000000
H          H       0.84715   0.87238   4.52613   0.0000000000
