data_crystal
 
_cell_length_a    22.60290
_cell_length_b    21.24380
_cell_length_c    11.45020
_cell_angle_alpha 77.16260
_cell_angle_beta  91.67460
_cell_angle_gamma 86.02380
 
_symmetry_space_group_name_Hall 'P 1'
_symmetry_space_group_name_H-M  'P 1'
 
loop_
_symmetry_equiv_pos_as_xyz
 'x,y,z' 
 
loop_
_atom_site_label
_atom_site_type_symbol
_atom_site_fract_x
_atom_site_fract_y
_atom_site_fract_z
_atom_site_charge
H          H       0.95331   0.88695   2.62835   0.0000000000
C          C       0.05916   0.16379   2.30919   0.0000000000
C          C       0.03098   0.10565   2.32633   0.0000000000
H          H       1.03825   0.20510   2.25650   0.0000000000
H          H       0.99044   0.10664   2.28462   0.0000000000
C          C       0.04458   0.90677   2.31006   0.0000000000
C          C       0.06872   0.84478   2.30383   0.0000000000
H          H       0.01834   0.93353   2.23987   0.0000000000
H          H       0.05754   0.82713   2.23108   0.0000000000
C          C       0.87086   0.06622   2.42146   0.0000000000
C          C       0.84066   0.12401   2.43526   0.0000000000
H          H       0.84976   0.04046   2.36994   0.0000000000
H          H       0.79925   0.13740   2.39501   0.0000000000
C          C       0.90065   0.82910   2.54887   0.0000000000
C          C       0.93112   0.88441   2.55111   0.0000000000
H          H       0.90160   0.79285   2.62480   0.0000000000
H          H      -0.00717   0.06909   2.59337   0.0000000000
C          C       0.05649   0.04728   2.40153   0.0000000000
C          C       0.11387   0.04946   2.45359   0.0000000000
C          C       0.14292   0.10708   2.43510   0.0000000000
C          C       0.11542   0.16525   2.36404   0.0000000000
H          H       0.13549   0.00956   2.50788   0.0000000000
H          H       0.18382   0.10638   2.47618   0.0000000000
C          C       0.02447   0.99051   2.42346   0.0000000000
C          C       0.05514   0.93164   2.41263   0.0000000000
C          C       0.10798   0.80795   2.39597   0.0000000000
C          C       0.12061   0.83381   2.49628   0.0000000000
C          C       0.09387   0.89427   2.50517   0.0000000000
H          H       0.10277   0.91055   2.58061   0.0000000000
H          H       0.14916   0.80853   2.56430   0.0000000000
C          C       0.33852   0.48617   2.36780   0.0000000000
C          C       0.37047   0.45655   2.47624   0.0000000000
C          C       0.43197   0.46152   2.48846   0.0000000000
C          C       0.46301   0.49560   2.39184   0.0000000000
C          C       0.43094   0.52551   2.28361   0.0000000000
C          C       0.36937   0.52106   2.27190   0.0000000000
C          C       0.56313   0.47368   2.32659   0.0000000000
C          C       0.52484   0.49930   2.40286   0.0000000000
C          C       0.54978   0.52841   2.49044   0.0000000000
C          C       0.61155   0.53154   2.50189   0.0000000000
C          C       0.65003   0.50546   2.42639   0.0000000000
C          C       0.62491   0.47668   2.33834   0.0000000000
N          N       0.27885   0.48064   2.35548   0.0000000000
C          C       0.24209   0.53577   2.34753   0.0000000000
C          C       0.24669   0.57399   2.43367   0.0000000000
C          C       0.21022   0.63137   2.42423   0.0000000000
C          C       0.16729   0.65257   2.32853   0.0000000000
C          C       0.16192   0.61388   2.24336   0.0000000000
C          C       0.19873   0.55658   2.25261   0.0000000000
C          C       0.29207   0.37451   2.30580   0.0000000000
C          C       0.25796   0.42157   2.35162   0.0000000000
C          C       0.20165   0.40447   2.39460   0.0000000000
C          C       0.18069   0.34386   2.39233   0.0000000000
C          C       0.21589   0.29708   2.34904   0.0000000000
C          C       0.27186   0.31346   2.30540   0.0000000000
C          C       0.71971   0.61488   2.31586   0.0000000000
C          C       0.73177   0.56764   2.42378   0.0000000000
N          N       0.71027   0.50785   2.43804   0.0000000000
C          C       0.76766   0.58312   2.51505   0.0000000000
C          C       0.79168   0.64369   2.49801   0.0000000000
C          C       0.78043   0.69068   2.38920   0.0000000000
C          C       0.74364   0.67538   2.29890   0.0000000000
C          C       0.73049   0.39222   2.52591   0.0000000000
C          C       0.74796   0.45220   2.45929   0.0000000000
C          C       0.80578   0.45203   2.41398   0.0000000000
C          C       0.84370   0.39507   2.43250   0.0000000000
C          C       0.82462   0.33540   2.49457   0.0000000000
C          C       0.76767   0.33475   2.54214   0.0000000000
C          C       0.13108   0.71070   2.31585   0.0000000000
C          C       0.19748   0.23489   2.35154   0.0000000000
C          C       0.80486   0.75122   2.36780   0.0000000000
C          C       0.86180   0.27850   2.50468   0.0000000000
N          N       0.13562   0.74947   2.39441   0.0000000000
N          N       0.83877   0.22226   2.49829   0.0000000000
N          N       0.84067   0.76880   2.44988   0.0000000000
N          N       0.13951   0.22299   2.34921   0.0000000000
H          H       0.34893   0.43125   2.54682   0.0000000000
H          H       0.45396   0.43956   2.56809   0.0000000000
H          H       0.45209   0.55098   2.21254   0.0000000000
H          H       0.34712   0.54306   2.19273   0.0000000000
H          H       0.54638   0.45222   2.26239   0.0000000000
H          H       0.52316   0.54782   2.54627   0.0000000000
H          H       0.62846   0.55280   2.56615   0.0000000000
H          H       0.65166   0.45775   2.28205   0.0000000000
H          H       0.27693   0.56016   2.50447   0.0000000000
H          H       0.21571   0.65750   2.48827   0.0000000000
H          H       0.13126   0.62724   2.17299   0.0000000000
H          H       0.19396   0.53010   2.18890   0.0000000000
H          H       0.33266   0.38412   2.27208   0.0000000000
H          H       0.17520   0.43609   2.42948   0.0000000000
H          H       0.13980   0.33392   2.42460   0.0000000000
H          H       0.29855   0.28107   2.27259   0.0000000000
H          H       0.69381   0.60515   2.24821   0.0000000000
H          H       0.77667   0.55005   2.59445   0.0000000000
H          H       0.81770   0.65283   2.56603   0.0000000000
H          H       0.73406   0.70807   2.21914   0.0000000000
H          H       0.68992   0.38966   2.56324   0.0000000000
H          H       0.82093   0.49370   2.36526   0.0000000000
H          H       0.88500   0.39748   2.39797   0.0000000000
H          H       0.75275   0.29248   2.58922   0.0000000000
H          H       0.10100   0.72406   2.24464   0.0000000000
H          H       0.22913   0.19761   2.35424   0.0000000000
H          H       0.79523   0.78273   2.28694   0.0000000000
H          H       0.90688   0.28087   2.50914   0.0000000000
C          C       0.92878   0.04560   2.47358   0.0000000000
C          C       0.86787   0.16426   2.49947   0.0000000000
C          C       0.92378   0.14283   2.55798   0.0000000000
C          C       0.95282   0.08356   2.54798   0.0000000000
H          H       0.94372   0.17056   2.60749   0.0000000000
C          C       0.96243   0.99097   2.44922   0.0000000000
C          C       0.93129   0.93535   2.44828   0.0000000000
C          C       0.90072   0.92905   2.34249   0.0000000000
C          C       0.86938   0.87437   2.34078   0.0000000000
C          C       0.86906   0.82350   2.44408   0.0000000000
H          H       0.90093   0.96449   2.26556   0.0000000000
H          H       0.84715   0.87238   2.26307   0.0000000000
H          H       0.95331   0.88695   3.12835   0.0000000000
C          C       0.05916   0.16379   2.80919   0.0000000000
C          C       0.03098   0.10565   2.82633   0.0000000000
H          H       1.03825   0.20510   2.75650   0.0000000000
H          H       0.99044   0.10664   2.78462   0.0000000000
C          C       0.04458   0.90677   2.81006   0.0000000000
C          C       0.06872   0.84478   2.80383   0.0000000000
H          H       0.01834   0.93353   2.73987   0.0000000000
H          H       0.05754   0.82713   2.73108   0.0000000000
C          C       0.87086   0.06622   2.92146   0.0000000000
C          C       0.84066   0.12401   2.93526   0.0000000000
H          H       0.84976   0.04046   2.86994   0.0000000000
H          H       0.79925   0.13740   2.89501   0.0000000000
C          C       0.90065   0.82910   3.04887   0.0000000000
C          C       0.93112   0.88441   3.05111   0.0000000000
H          H       0.90160   0.79285   3.12480   0.0000000000
H          H      -0.00717   0.06909   3.09337   0.0000000000
C          C       0.05649   0.04728   2.90153   0.0000000000
C          C       0.11387   0.04946   2.95359   0.0000000000
C          C       0.14292   0.10708   2.93510   0.0000000000
C          C       0.11542   0.16525   2.86404   0.0000000000
H          H       0.13549   0.00956   3.00788   0.0000000000
H          H       0.18382   0.10638   2.97618   0.0000000000
C          C       0.02447   0.99051   2.92346   0.0000000000
C          C       0.05514   0.93164   2.91263   0.0000000000
C          C       0.10798   0.80795   2.89597   0.0000000000
C          C       0.12061   0.83381   2.99629   0.0000000000
C          C       0.09387   0.89427   3.00517   0.0000000000
H          H       0.10277   0.91055   3.08061   0.0000000000
H          H       0.14916   0.80853   3.06430   0.0000000000
C          C       0.33852   0.48617   2.86780   0.0000000000
C          C       0.37047   0.45655   2.97624   0.0000000000
C          C       0.43197   0.46152   2.98846   0.0000000000
C          C       0.46301   0.49560   2.89184   0.0000000000
C          C       0.43094   0.52551   2.78361   0.0000000000
C          C       0.36937   0.52106   2.77190   0.0000000000
C          C       0.56313   0.47368   2.82659   0.0000000000
C          C       0.52484   0.49930   2.90286   0.0000000000
C          C       0.54978   0.52841   2.99044   0.0000000000
C          C       0.61155   0.53154   3.00189   0.0000000000
C          C       0.65003   0.50546   2.92639   0.0000000000
C          C       0.62491   0.47668   2.83834   0.0000000000
N          N       0.27885   0.48064   2.85548   0.0000000000
C          C       0.24209   0.53577   2.84753   0.0000000000
C          C       0.24669   0.57399   2.93367   0.0000000000
C          C       0.21022   0.63137   2.92423   0.0000000000
C          C       0.16729   0.65257   2.82853   0.0000000000
C          C       0.16192   0.61388   2.74336   0.0000000000
C          C       0.19873   0.55658   2.75261   0.0000000000
C          C       0.29207   0.37451   2.80580   0.0000000000
C          C       0.25796   0.42157   2.85162   0.0000000000
C          C       0.20165   0.40447   2.89460   0.0000000000
C          C       0.18069   0.34386   2.89233   0.0000000000
C          C       0.21589   0.29708   2.84904   0.0000000000
C          C       0.27186   0.31346   2.80540   0.0000000000
C          C       0.71971   0.61488   2.81586   0.0000000000
C          C       0.73177   0.56764   2.92378   0.0000000000
N          N       0.71027   0.50785   2.93804   0.0000000000
C          C       0.76766   0.58312   3.01505   0.0000000000
C          C       0.79168   0.64369   2.99801   0.0000000000
C          C       0.78043   0.69068   2.88920   0.0000000000
C          C       0.74364   0.67538   2.79890   0.0000000000
C          C       0.73049   0.39222   3.02592   0.0000000000
C          C       0.74796   0.45220   2.95929   0.0000000000
C          C       0.80578   0.45203   2.91398   0.0000000000
C          C       0.84370   0.39507   2.93250   0.0000000000
C          C       0.82462   0.33540   2.99457   0.0000000000
C          C       0.76767   0.33475   3.04214   0.0000000000
C          C       0.13108   0.71070   2.81585   0.0000000000
C          C       0.19748   0.23489   2.85154   0.0000000000
C          C       0.80486   0.75122   2.86780   0.0000000000
C          C       0.86180   0.27850   3.00468   0.0000000000
N          N       0.13562   0.74947   2.89441   0.0000000000
N          N       0.83877   0.22226   2.99829   0.0000000000
N          N       0.84067   0.76880   2.94988   0.0000000000
N          N       0.13951   0.22299   2.84921   0.0000000000
H          H       0.34893   0.43125   3.04682   0.0000000000
H          H       0.45396   0.43956   3.06809   0.0000000000
H          H       0.45209   0.55098   2.71254   0.0000000000
H          H       0.34712   0.54306   2.69273   0.0000000000
H          H       0.54638   0.45222   2.76239   0.0000000000
H          H       0.52316   0.54782   3.04627   0.0000000000
H          H       0.62846   0.55280   3.06615   0.0000000000
H          H       0.65166   0.45775   2.78205   0.0000000000
H          H       0.27693   0.56016   3.00447   0.0000000000
H          H       0.21571   0.65750   2.98827   0.0000000000
H          H       0.13126   0.62724   2.67299   0.0000000000
H          H       0.19396   0.53010   2.68890   0.0000000000
H          H       0.33266   0.38412   2.77208   0.0000000000
H          H       0.17520   0.43609   2.92948   0.0000000000
H          H       0.13980   0.33392   2.92460   0.0000000000
H          H       0.29855   0.28107   2.77259   0.0000000000
H          H       0.69381   0.60515   2.74821   0.0000000000
H          H       0.77667   0.55005   3.09446   0.0000000000
H          H       0.81770   0.65283   3.06603   0.0000000000
H          H       0.73406   0.70807   2.71914   0.0000000000
H          H       0.68992   0.38966   3.06324   0.0000000000
H          H       0.82093   0.49370   2.86526   0.0000000000
H          H       0.88500   0.39748   2.89797   0.0000000000
H          H       0.75275   0.29248   3.08922   0.0000000000
H          H       0.10100   0.72406   2.74464   0.0000000000
H          H       0.22913   0.19761   2.85424   0.0000000000
H          H       0.79523   0.78273   2.78694   0.0000000000
H          H       0.90688   0.28087   3.00914   0.0000000000
C          C       0.92878   0.04560   2.97358   0.0000000000
C          C       0.86787   0.16426   2.99947   0.0000000000
C          C       0.92378   0.14283   3.05799   0.0000000000
C          C       0.95282   0.08356   3.04798   0.0000000000
H          H       0.94372   0.17056   3.10749   0.0000000000
C          C       0.96243   0.99097   2.94922   0.0000000000
C          C       0.93129   0.93535   2.94829   0.0000000000
C          C       0.90072   0.92905   2.84249   0.0000000000
C          C       0.86938   0.87437   2.84078   0.0000000000
C          C       0.86906   0.82350   2.94408   0.0000000000
H          H       0.90093   0.96449   2.76556   0.0000000000
H          H       0.84715   0.87238   2.76307   0.0000000000
