data_crystal
 
_cell_length_a    15.13870
_cell_length_b    16.04390
_cell_length_c    10.53880
_cell_angle_alpha 90.00000
_cell_angle_beta  90.00000
_cell_angle_gamma 86.59910
 
_space_group_name_Hall 'P 1'
_space_group_name_H-M_alt  'P 1'
 
loop_
_symmetry_equiv_pos_as_xyz
 'x,y,z' 
 
loop_
_atom_site_label
_atom_site_type_symbol
_atom_site_fract_x
_atom_site_fract_y
_atom_site_fract_z
C          C       0.26874   0.46801   0.03805 
C          C       0.73126   0.53199   0.03805 
C          C       0.32973   0.39948   0.05912 
C          C       0.67027   0.60052   0.05912 
C          C       0.42064   0.41426   0.06666 
C          C       0.57936   0.58574   0.06666 
C          C       0.45362   0.49362   0.04047 
C          C       0.54638   0.50638   0.04047 
C          C       0.38938   0.55965   0.01418 
C          C       0.61062   0.44035   0.01418 
C          C       0.29729   0.54923   0.01947 
C          C       0.70271   0.45077   0.01947 
H          H       0.20232   0.45870   0.03754 
H          H       0.79767   0.54130   0.03754 
H          H       0.46336   0.36509   0.09080 
H          H       0.53664   0.63491   0.09080 
H          H       0.40947   0.61740  -0.00852 
H          H       0.59053   0.38260  -0.00852 
C          C       0.23409   0.61722   0.01158 
C          C       0.76591   0.38279   0.01158 
N          N       0.25512   0.69487  -0.02254 
N          N       0.74487   0.30513  -0.02254 
N          N       0.22914   0.29453   0.00903 
N          N       0.77086   0.70547   0.00903 
C          C       0.30160   0.31784   0.07182 
C          C       0.69840   0.68216   0.07182 
H          H       0.16968   0.60787   0.03474 
H          H       0.83032   0.39213   0.03474 
H          H       0.33849   0.27524   0.12487 
H          H       0.66151   0.72476   0.12487 
C          C       0.95235   0.00170  -0.01079 
C          C       0.04765   0.99830  -0.01079 
C          C       0.89987   0.07831  -0.01109 
C          C       0.83237   0.09393  -0.10266 
C          C       0.78084   0.16984  -0.10485 
C          C       0.79621   0.23318  -0.01642 
C          C       0.86217   0.21784   0.07694 
C          C       0.91207   0.14116   0.08019 
H          H       0.95783   0.13154   0.15007 
H          H       0.82009   0.04995  -0.16921 
H          H       0.73246   0.17882  -0.17216 
H          H       0.87361   0.26174   0.14436 
C          C       0.10013   0.92169  -0.01109 
C          C       0.16763   0.90608  -0.10266 
C          C       0.21915   0.83016  -0.10485 
C          C       0.20379   0.76682  -0.01642 
C          C       0.13783   0.78216   0.07694 
C          C       0.08793   0.85884   0.08019 
H          H       0.04216   0.86846   0.15007 
H          H       0.17991   0.95005  -0.16921 
H          H       0.26754   0.82118  -0.17216 
H          H       0.12639   0.73826   0.14436 
C          C       0.09626   0.07151  -0.00809 
C          C       0.16046   0.08235   0.08736 
C          C       0.20670   0.15566   0.09488 
C          C       0.18974   0.22096   0.00674 
C          C       0.12723   0.21022  -0.09011 
C          C       0.08226   0.13618  -0.09823 
H          H       0.17369   0.03694   0.15352 
H          H       0.25178   0.16104   0.16609 
H          H       0.11407   0.25626  -0.15590 
H          H       0.03836   0.13005  -0.17016 
C          C       0.90373   0.92849  -0.00809 
C          C       0.83954   0.91765   0.08736 
C          C       0.79330   0.84434   0.09488 
C          C       0.81025   0.77904   0.00674 
C          C       0.87277   0.78978  -0.09011 
C          C       0.91774   0.86382  -0.09823 
H          H       0.82630   0.96306   0.15352 
H          H       0.74821   0.83896   0.16609 
H          H       0.88593   0.74374  -0.15590 
H          H       0.96163   0.86995  -0.17016 
C          C       0.26874   0.46801   0.53804 
C          C       0.73126   0.53199   0.53804 
C          C       0.32973   0.39948   0.55912 
C          C       0.67027   0.60052   0.55912 
C          C       0.42064   0.41426   0.56666 
C          C       0.57936   0.58574   0.56666 
C          C       0.45362   0.49362   0.54046 
C          C       0.54638   0.50638   0.54046 
C          C       0.38938   0.55965   0.51417 
C          C       0.61062   0.44035   0.51417 
C          C       0.29729   0.54923   0.51948 
C          C       0.70271   0.45077   0.51948 
H          H       0.20232   0.45870   0.53754 
H          H       0.79767   0.54130   0.53754 
H          H       0.46336   0.36509   0.59081 
H          H       0.53664   0.63491   0.59081 
H          H       0.40947   0.61740   0.49147 
H          H       0.59053   0.38260   0.49147 
C          C       0.23409   0.61722   0.51159 
C          C       0.76591   0.38279   0.51159 
N          N       0.25512   0.69487   0.47746 
N          N       0.74487   0.30513   0.47746 
N          N       0.22914   0.29453   0.50904 
N          N       0.77086   0.70547   0.50904 
C          C       0.30160   0.31784   0.57181 
C          C       0.69840   0.68216   0.57181 
H          H       0.16968   0.60787   0.53474 
H          H       0.83032   0.39213   0.53474 
H          H       0.33849   0.27524   0.62487 
H          H       0.66151   0.72476   0.62487 
C          C       0.95235   0.00170   0.48921 
C          C       0.04765   0.99830   0.48921 
C          C       0.89987   0.07831   0.48891 
C          C       0.83237   0.09393   0.39734 
C          C       0.78084   0.16984   0.39515 
C          C       0.79621   0.23318   0.48357 
C          C       0.86217   0.21784   0.57694 
C          C       0.91207   0.14116   0.58019 
H          H       0.95783   0.13154   0.65007 
H          H       0.82009   0.04995   0.33079 
H          H       0.73246   0.17882   0.32784 
H          H       0.87361   0.26174   0.64436 
C          C       0.10013   0.92169   0.48891 
C          C       0.16763   0.90608   0.39734 
C          C       0.21915   0.83016   0.39515 
C          C       0.20379   0.76682   0.48357 
C          C       0.13783   0.78216   0.57694 
C          C       0.08793   0.85884   0.58019 
H          H       0.04216   0.86846   0.65007 
H          H       0.17991   0.95005   0.33079 
H          H       0.26754   0.82118   0.32784 
H          H       0.12639   0.73826   0.64436 
C          C       0.09626   0.07151   0.49191 
C          C       0.16046   0.08235   0.58736 
C          C       0.20670   0.15566   0.59488 
C          C       0.18974   0.22096   0.50674 
C          C       0.12723   0.21022   0.40989 
C          C       0.08226   0.13618   0.40177 
H          H       0.17369   0.03694   0.65353 
H          H       0.25178   0.16104   0.66609 
H          H       0.11407   0.25626   0.34409 
H          H       0.03836   0.13005   0.32984 
C          C       0.90373   0.92849   0.49191 
C          C       0.83954   0.91765   0.58736 
C          C       0.79330   0.84434   0.59488 
C          C       0.81025   0.77904   0.50674 
C          C       0.87277   0.78978   0.40989 
C          C       0.91774   0.86382   0.40177 
H          H       0.82630   0.96306   0.65353 
H          H       0.74821   0.83896   0.66609 
H          H       0.88593   0.74374   0.34409 
H          H       0.96163   0.86995   0.32984 
