data_crystal
 
_cell_length_a    30.18260
_cell_length_b    52.27790
_cell_length_c    7.36680
_cell_angle_alpha 90.94460
_cell_angle_beta  111.62560
_cell_angle_gamma 90.01210
 
_symmetry_space_group_name_Hall 'P 1'
_symmetry_space_group_name_H-M  'P 1'
 
loop_
_symmetry_equiv_pos_as_xyz
 'x,y,z' 
 
loop_
_atom_site_label
_atom_site_type_symbol
_atom_site_fract_x
_atom_site_fract_y
_atom_site_fract_z
_atom_site_charge
C          C       0.52374   0.80951   0.23871   0.0000000000
C          C       0.54854   0.83327   0.24669   0.0000000000
C          C       0.59661   0.83225   0.25459   0.0000000000
C          C       0.61861   0.80894   0.24872   0.0000000000
C          C       0.59426   0.78617   0.23530   0.0000000000
C          C       0.54758   0.78614   0.22975   0.0000000000
C          C       0.02308   0.30924   0.23895   0.0000000000
C          C       0.04796   0.33301   0.24817   0.0000000000
C          C       0.09605   0.33201   0.25663   0.0000000000
C          C       0.11802   0.30873   0.25006   0.0000000000
C          C       0.09367   0.28593   0.23538   0.0000000000
C          C       0.04691   0.28588   0.22930   0.0000000000
C          C       0.52247   0.19082   0.23271   0.0000000000
C          C       0.54712   0.16708   0.23961   0.0000000000
C          C       0.59513   0.16810   0.24696   0.0000000000
C          C       0.61731   0.19137   0.24279   0.0000000000
C          C       0.59324   0.21414   0.23108   0.0000000000
C          C       0.54651   0.21416   0.22540   0.0000000000
C          C       0.02362   0.69056   0.23340   0.0000000000
C          C       0.04838   0.66683   0.24109   0.0000000000
C          C       0.09643   0.66788   0.24896   0.0000000000
C          C       0.11856   0.69115   0.24444   0.0000000000
C          C       0.09436   0.71390   0.23180   0.0000000000
C          C       0.04759   0.71390   0.22557   0.0000000000
O          O       0.62159   0.76603   0.22856   0.0000000000
O          O       0.12110   0.26583   0.22823   0.0000000000
O          O       0.62088   0.23422   0.22620   0.0000000000
O          O       0.12193   0.73399   0.22659   0.0000000000
B          B       0.66615   0.77723   0.23906   0.0000000000
B          B       0.16567   0.27716   0.23994   0.0000000000
B          B       0.66529   0.22292   0.23621   0.0000000000
B          B       0.16645   0.72274   0.23750   0.0000000000
O          O       0.66302   0.80467   0.25226   0.0000000000
O          O       0.16248   0.30458   0.25413   0.0000000000
O          O       0.66179   0.19553   0.24696   0.0000000000
O          O       0.16307   0.69535   0.24902   0.0000000000
C          C       0.47631   0.80966   0.23820   0.0000000000
C          C       0.45197   0.83354   0.22991   0.0000000000
C          C       0.45198   0.78650   0.24709   0.0000000000
C          C       0.40527   0.78680   0.24119   0.0000000000
C          C       0.38142   0.80967   0.22808   0.0000000000
C          C       0.40395   0.83280   0.22273   0.0000000000
C          C       0.97562   0.30941   0.23803   0.0000000000
C          C       0.95139   0.33331   0.23079   0.0000000000
C          C       0.95115   0.28625   0.24563   0.0000000000
C          C       0.90445   0.28657   0.23995   0.0000000000
C          C       0.88076   0.30948   0.22817   0.0000000000
C          C       0.90338   0.33260   0.22379   0.0000000000
C          C       0.47501   0.19064   0.23190   0.0000000000
C          C       0.45057   0.16672   0.22249   0.0000000000
C          C       0.45076   0.21383   0.24177   0.0000000000
C          C       0.40404   0.21349   0.23586   0.0000000000
C          C       0.38009   0.19055   0.22128   0.0000000000
C          C       0.40249   0.16741   0.21457   0.0000000000
C          C       0.97614   0.69037   0.23228   0.0000000000
C          C       0.95176   0.66643   0.22310   0.0000000000
C          C       0.95181   0.71355   0.24176   0.0000000000
C          C       0.90507   0.71319   0.23573   0.0000000000
C          C       0.88120   0.69022   0.22113   0.0000000000
C          C       0.90365   0.66710   0.21465   0.0000000000
O          O       0.33687   0.80569   0.22394   0.0000000000
O          O       0.83622   0.30554   0.22418   0.0000000000
O          O       0.33556   0.19447   0.21742   0.0000000000
O          O       0.83668   0.69411   0.21720   0.0000000000
B          B       0.33313   0.77832   0.23614   0.0000000000
B          B       0.83230   0.27816   0.23506   0.0000000000
B          B       0.33196   0.22188   0.23161   0.0000000000
B          B       0.83289   0.72150   0.23141   0.0000000000
O          O       0.37747   0.76686   0.24709   0.0000000000
O          O       0.87653   0.26665   0.24507   0.0000000000
O          O       0.37633   0.23342   0.24314   0.0000000000
O          O       0.87723   0.73309   0.24290   0.0000000000
C          C       0.52486   0.85704   0.24438   0.0000000000
C          C       0.47600   0.85716   0.23057   0.0000000000
C          C       0.45290   0.88131   0.21927   0.0000000000
C          C       0.47711   0.90426   0.22605   0.0000000000
C          C       0.52430   0.90414   0.24364   0.0000000000
C          C       0.54826   0.88109   0.25319   0.0000000000
C          C       0.02436   0.35678   0.24656   0.0000000000
C          C       0.02400   0.40387   0.24730   0.0000000000
C          C       0.04789   0.38082   0.25645   0.0000000000
C          C       0.52343   0.14330   0.23725   0.0000000000
C          C       0.47456   0.14309   0.22326   0.0000000000
C          C       0.45151   0.11888   0.21256   0.0000000000
C          C       0.47580   0.09597   0.22021   0.0000000000
C          C       0.52300   0.09622   0.23800   0.0000000000
C          C       0.54689   0.11931   0.24678   0.0000000000
C          C       0.02476   0.64303   0.23908   0.0000000000
C          C       0.02446   0.59593   0.24110   0.0000000000
C          C       0.04829   0.61904   0.24940   0.0000000000
C          C       0.97548   0.35693   0.23237   0.0000000000
C          C       0.95246   0.38110   0.22153   0.0000000000
C          C       0.97678   0.40404   0.22915   0.0000000000
C          C       0.97587   0.64282   0.22468   0.0000000000
C          C       0.95287   0.61860   0.21444   0.0000000000
C          C       0.97723   0.59570   0.22297   0.0000000000
O          O       0.54090   0.92821   0.24818   0.0000000000
O          O       0.04078   0.42789   0.25266   0.0000000000
O          O       0.53978   0.07221   0.24380   0.0000000000
O          O       0.04125   0.57191   0.24770   0.0000000000
B          B       0.50094   0.94436   0.23202   0.0000000000
B          B       0.00090   0.44409   0.23633   0.0000000000
B          B       0.49995   0.05594   0.22842   0.0000000000
B          B       0.00138   0.55566   0.23245   0.0000000000
O          O       0.46080   0.92841   0.21822   0.0000000000
O          O       0.96060   0.42822   0.22173   0.0000000000
O          O       0.45965   0.07176   0.21356   0.0000000000
O          O       0.96108   0.57151   0.21685   0.0000000000
H          H       0.61708   0.84795   0.26300   0.0000000000
H          H       0.53232   0.76856   0.21739   0.0000000000
H          H       0.46689   0.76889   0.25951   0.0000000000
H          H       0.38387   0.84861   0.21496   0.0000000000
H          H       0.41841   0.88327   0.20618   0.0000000000
H          H       0.58276   0.88290   0.26590   0.0000000000
H          H       0.11660   0.34771   0.26599   0.0000000000
H          H       0.03159   0.26831   0.21610   0.0000000000
H          H       0.08242   0.38262   0.26971   0.0000000000
H          H       0.61547   0.15242   0.25390   0.0000000000
H          H       0.53138   0.23169   0.21422   0.0000000000
H          H       0.46575   0.23149   0.25500   0.0000000000
H          H       0.38228   0.15157   0.20540   0.0000000000
H          H       0.41703   0.11685   0.19956   0.0000000000
H          H       0.58142   0.11756   0.25992   0.0000000000
H          H       0.11682   0.65221   0.25655   0.0000000000
H          H       0.03237   0.73142   0.21369   0.0000000000
H          H       0.08284   0.61730   0.26276   0.0000000000
H          H       0.96596   0.26862   0.25701   0.0000000000
H          H       0.88339   0.34842   0.21697   0.0000000000
H          H       0.91795   0.38308   0.20814   0.0000000000
H          H       0.96676   0.73122   0.25493   0.0000000000
H          H       0.88344   0.65125   0.20534   0.0000000000
H          H       0.91838   0.61656   0.20125   0.0000000000
C          C       0.79025   0.73556   0.23389   0.0000000000
C          C       0.28939   0.23599   0.23402   0.0000000000
C          C       0.78957   0.26407   0.23574   0.0000000000
C          C       0.29049   0.76415   0.23703   0.0000000000
C          C       0.74804   0.72261   0.21924   0.0000000000
C          C       0.24746   0.22264   0.21835   0.0000000000
C          C       0.74781   0.27738   0.22200   0.0000000000
C          C       0.24851   0.77735   0.22162   0.0000000000
C          C       0.75065   0.77604   0.25188   0.0000000000
C          C       0.25010   0.27630   0.25339   0.0000000000
C          C       0.74971   0.22380   0.24940   0.0000000000
C          C       0.25105   0.72381   0.25267   0.0000000000
H          H       0.24595   0.20311   0.20564   0.0000000000
H          H       0.74657   0.29689   0.21200   0.0000000000
H          H       0.24704   0.79684   0.21029   0.0000000000
C          C       0.79104   0.76255   0.25059   0.0000000000
C          C       0.29043   0.26292   0.25190   0.0000000000
C          C       0.79023   0.23718   0.24979   0.0000000000
C          C       0.29147   0.73728   0.25301   0.0000000000
C          C       0.70803   0.73595   0.21966   0.0000000000
C          C       0.20712   0.23604   0.21984   0.0000000000
C          C       0.70729   0.26400   0.22164   0.0000000000
C          C       0.20808   0.76388   0.22132   0.0000000000
H          H       0.82096   0.77258   0.26110   0.0000000000
H          H       0.32045   0.27299   0.26339   0.0000000000
H          H       0.82009   0.22712   0.25980   0.0000000000
H          H       0.32153   0.72730   0.26452   0.0000000000
C          C       0.70849   0.76287   0.23669   0.0000000000
C          C       0.20815   0.26297   0.23764   0.0000000000
C          C       0.70795   0.23711   0.23568   0.0000000000
C          C       0.20905   0.73700   0.23711   0.0000000000
H          H       0.17708   0.22598   0.20832   0.0000000000
H          H       0.67739   0.27404   0.21152   0.0000000000
H          H       0.17799   0.77382   0.20988   0.0000000000
H          H       0.75225   0.79554   0.26384   0.0000000000
H          H       0.25163   0.29584   0.26602   0.0000000000
H          H       0.75097   0.20429   0.25926   0.0000000000
H          H       0.25256   0.70432   0.26403   0.0000000000
C          C       0.50039   0.02748   0.22826   0.0000000000
C          C       0.00158   0.52720   0.23284   0.0000000000
C          C       0.50094   0.97282   0.22997   0.0000000000
C          C       0.00128   0.47254   0.23469   0.0000000000
C          C       0.54156   0.01364   0.24144   0.0000000000
C          C       0.04258   0.51315   0.24681   0.0000000000
C          C       0.54181   0.98694   0.24221   0.0000000000
C          C       0.04243   0.48645   0.24764   0.0000000000
C          C       0.45950   0.98652   0.21635   0.0000000000
C          C       0.96001   0.48644   0.22048   0.0000000000
C          C       0.45921   0.01352   0.21549   0.0000000000
C          C       0.96016   0.51343   0.21953   0.0000000000
N          N       0.58388   0.02318   0.25471   0.0000000000
N          N       0.08507   0.52251   0.26070   0.0000000000
N          N       0.58429   0.97765   0.25598   0.0000000000
N          N       0.08482   0.47697   0.26199   0.0000000000
S          S       0.62471   0.00054   0.26905   0.0000000000
S          S       0.12562   0.49968   0.27570   0.0000000000
N          N       0.74014   0.69729   0.20316   0.0000000000
S          S       0.68486   0.68898   0.18668   0.0000000000
N          N       0.67182   0.72005   0.20283   0.0000000000
H          H       0.42881   0.02287   0.20688   0.0000000000
H          H       0.92986   0.52297   0.21026   0.0000000000
H          H       0.42930   0.97694   0.20836   0.0000000000
H          H       0.92959   0.47706   0.21196   0.0000000000
C          C       0.52374   0.80951   0.73872   0.0000000000
C          C       0.54854   0.83327   0.74669   0.0000000000
C          C       0.59661   0.83225   0.75458   0.0000000000
C          C       0.61861   0.80894   0.74872   0.0000000000
C          C       0.59426   0.78617   0.73529   0.0000000000
C          C       0.54758   0.78614   0.72975   0.0000000000
C          C       0.02308   0.30924   0.73895   0.0000000000
C          C       0.04796   0.33301   0.74817   0.0000000000
C          C       0.09605   0.33201   0.75663   0.0000000000
C          C       0.11802   0.30873   0.75006   0.0000000000
C          C       0.09367   0.28593   0.73538   0.0000000000
C          C       0.04691   0.28588   0.72930   0.0000000000
C          C       0.52247   0.19082   0.73271   0.0000000000
C          C       0.54712   0.16708   0.73962   0.0000000000
C          C       0.59513   0.16810   0.74695   0.0000000000
C          C       0.61731   0.19137   0.74279   0.0000000000
C          C       0.59324   0.21414   0.73108   0.0000000000
C          C       0.54651   0.21416   0.72540   0.0000000000
C          C       0.02362   0.69056   0.73340   0.0000000000
C          C       0.04838   0.66683   0.74109   0.0000000000
C          C       0.09643   0.66788   0.74896   0.0000000000
C          C       0.11856   0.69115   0.74444   0.0000000000
C          C       0.09436   0.71390   0.73180   0.0000000000
C          C       0.04759   0.71390   0.72557   0.0000000000
O          O       0.62159   0.76603   0.72856   0.0000000000
O          O       0.12110   0.26583   0.72823   0.0000000000
O          O       0.62088   0.23422   0.72620   0.0000000000
O          O       0.12193   0.73399   0.72659   0.0000000000
B          B       0.66615   0.77723   0.73906   0.0000000000
B          B       0.16567   0.27716   0.73994   0.0000000000
B          B       0.66529   0.22292   0.73621   0.0000000000
B          B       0.16645   0.72274   0.73750   0.0000000000
O          O       0.66302   0.80467   0.75226   0.0000000000
O          O       0.16248   0.30458   0.75413   0.0000000000
O          O       0.66179   0.19553   0.74696   0.0000000000
O          O       0.16307   0.69535   0.74902   0.0000000000
C          C       0.47631   0.80966   0.73820   0.0000000000
C          C       0.45197   0.83354   0.72991   0.0000000000
C          C       0.45198   0.78650   0.74709   0.0000000000
C          C       0.40527   0.78680   0.74118   0.0000000000
C          C       0.38142   0.80967   0.72808   0.0000000000
C          C       0.40395   0.83280   0.72273   0.0000000000
C          C       0.97562   0.30941   0.73803   0.0000000000
C          C       0.95139   0.33331   0.73079   0.0000000000
C          C       0.95115   0.28625   0.74563   0.0000000000
C          C       0.90445   0.28657   0.73995   0.0000000000
C          C       0.88076   0.30948   0.72818   0.0000000000
C          C       0.90338   0.33260   0.72379   0.0000000000
C          C       0.47501   0.19064   0.73190   0.0000000000
C          C       0.45057   0.16672   0.72249   0.0000000000
C          C       0.45076   0.21383   0.74177   0.0000000000
C          C       0.40404   0.21349   0.73586   0.0000000000
C          C       0.38009   0.19055   0.72128   0.0000000000
C          C       0.40249   0.16741   0.71457   0.0000000000
C          C       0.97614   0.69037   0.73228   0.0000000000
C          C       0.95176   0.66643   0.72310   0.0000000000
C          C       0.95181   0.71355   0.74177   0.0000000000
C          C       0.90507   0.71319   0.73573   0.0000000000
C          C       0.88120   0.69022   0.72113   0.0000000000
C          C       0.90365   0.66710   0.71465   0.0000000000
O          O       0.33687   0.80569   0.72394   0.0000000000
O          O       0.83622   0.30554   0.72418   0.0000000000
O          O       0.33556   0.19447   0.71742   0.0000000000
O          O       0.83668   0.69411   0.71720   0.0000000000
B          B       0.33313   0.77832   0.73613   0.0000000000
B          B       0.83230   0.27816   0.73506   0.0000000000
B          B       0.33196   0.22188   0.73161   0.0000000000
B          B       0.83289   0.72150   0.73142   0.0000000000
O          O       0.37747   0.76686   0.74709   0.0000000000
O          O       0.87653   0.26665   0.74506   0.0000000000
O          O       0.37633   0.23342   0.74314   0.0000000000
O          O       0.87723   0.73309   0.74290   0.0000000000
C          C       0.52486   0.85704   0.74438   0.0000000000
C          C       0.47600   0.85716   0.73057   0.0000000000
C          C       0.45290   0.88131   0.71927   0.0000000000
C          C       0.47711   0.90426   0.72605   0.0000000000
C          C       0.52430   0.90414   0.74364   0.0000000000
C          C       0.54826   0.88109   0.75319   0.0000000000
C          C       0.02436   0.35678   0.74657   0.0000000000
C          C       0.02400   0.40387   0.74730   0.0000000000
C          C       0.04789   0.38082   0.75645   0.0000000000
C          C       0.52343   0.14330   0.73724   0.0000000000
C          C       0.47456   0.14309   0.72326   0.0000000000
C          C       0.45151   0.11888   0.71256   0.0000000000
C          C       0.47580   0.09597   0.72021   0.0000000000
C          C       0.52300   0.09622   0.73800   0.0000000000
C          C       0.54689   0.11931   0.74678   0.0000000000
C          C       0.02476   0.64303   0.73908   0.0000000000
C          C       0.02446   0.59593   0.74110   0.0000000000
C          C       0.04829   0.61904   0.74940   0.0000000000
C          C       0.97548   0.35693   0.73237   0.0000000000
C          C       0.95246   0.38110   0.72153   0.0000000000
C          C       0.97678   0.40404   0.72915   0.0000000000
C          C       0.97587   0.64282   0.72468   0.0000000000
C          C       0.95287   0.61860   0.71444   0.0000000000
C          C       0.97723   0.59570   0.72297   0.0000000000
O          O       0.54090   0.92821   0.74818   0.0000000000
O          O       0.04078   0.42789   0.75266   0.0000000000
O          O       0.53978   0.07221   0.74380   0.0000000000
O          O       0.04125   0.57191   0.74770   0.0000000000
B          B       0.50094   0.94436   0.73202   0.0000000000
B          B       0.00090   0.44409   0.73633   0.0000000000
B          B       0.49995   0.05594   0.72842   0.0000000000
B          B       0.00138   0.55566   0.73244   0.0000000000
O          O       0.46080   0.92841   0.71822   0.0000000000
O          O       0.96060   0.42822   0.72173   0.0000000000
O          O       0.45965   0.07176   0.71356   0.0000000000
O          O       0.96108   0.57151   0.71685   0.0000000000
H          H       0.61708   0.84795   0.76300   0.0000000000
H          H       0.53232   0.76856   0.71740   0.0000000000
H          H       0.46689   0.76889   0.75952   0.0000000000
H          H       0.38387   0.84861   0.71496   0.0000000000
H          H       0.41841   0.88327   0.70618   0.0000000000
H          H       0.58276   0.88290   0.76590   0.0000000000
H          H       0.11660   0.34771   0.76599   0.0000000000
H          H       0.03159   0.26831   0.71609   0.0000000000
H          H       0.08242   0.38262   0.76971   0.0000000000
H          H       0.61547   0.15242   0.75390   0.0000000000
H          H       0.53138   0.23169   0.71422   0.0000000000
H          H       0.46575   0.23149   0.75500   0.0000000000
H          H       0.38228   0.15157   0.70540   0.0000000000
H          H       0.41703   0.11685   0.69956   0.0000000000
H          H       0.58142   0.11756   0.75991   0.0000000000
H          H       0.11682   0.65221   0.75654   0.0000000000
H          H       0.03237   0.73142   0.71368   0.0000000000
H          H       0.08284   0.61730   0.76275   0.0000000000
H          H       0.96596   0.26862   0.75701   0.0000000000
H          H       0.88339   0.34842   0.71698   0.0000000000
H          H       0.91795   0.38308   0.70814   0.0000000000
H          H       0.96676   0.73122   0.75493   0.0000000000
H          H       0.88344   0.65125   0.70534   0.0000000000
H          H       0.91838   0.61656   0.70125   0.0000000000
C          C       0.79025   0.73556   0.73389   0.0000000000
C          C       0.28939   0.23599   0.73403   0.0000000000
C          C       0.78957   0.26407   0.73574   0.0000000000
C          C       0.29049   0.76415   0.73703   0.0000000000
C          C       0.74804   0.72261   0.71924   0.0000000000
C          C       0.24746   0.22264   0.71835   0.0000000000
C          C       0.74781   0.27738   0.72200   0.0000000000
C          C       0.24851   0.77735   0.72162   0.0000000000
C          C       0.75065   0.77604   0.75187   0.0000000000
C          C       0.25010   0.27630   0.75338   0.0000000000
C          C       0.74971   0.22380   0.74940   0.0000000000
C          C       0.25105   0.72381   0.75267   0.0000000000
H          H       0.24595   0.20311   0.70564   0.0000000000
H          H       0.74657   0.29689   0.71200   0.0000000000
H          H       0.24704   0.79684   0.71030   0.0000000000
C          C       0.79104   0.76255   0.75058   0.0000000000
C          C       0.29043   0.26292   0.75190   0.0000000000
C          C       0.79023   0.23718   0.74979   0.0000000000
C          C       0.29147   0.73728   0.75301   0.0000000000
C          C       0.70803   0.73595   0.71966   0.0000000000
C          C       0.20712   0.23604   0.71984   0.0000000000
C          C       0.70729   0.26400   0.72164   0.0000000000
C          C       0.20808   0.76388   0.72132   0.0000000000
H          H       0.82096   0.77258   0.76110   0.0000000000
H          H       0.32045   0.27299   0.76339   0.0000000000
H          H       0.82009   0.22712   0.75980   0.0000000000
H          H       0.32153   0.72730   0.76451   0.0000000000
C          C       0.70849   0.76287   0.73669   0.0000000000
C          C       0.20815   0.26297   0.73764   0.0000000000
C          C       0.70795   0.23711   0.73568   0.0000000000
C          C       0.20905   0.73700   0.73711   0.0000000000
H          H       0.17708   0.22598   0.70832   0.0000000000
H          H       0.67739   0.27404   0.71152   0.0000000000
H          H       0.17799   0.77382   0.70988   0.0000000000
H          H       0.75225   0.79554   0.76384   0.0000000000
H          H       0.25163   0.29584   0.76602   0.0000000000
H          H       0.75097   0.20429   0.75926   0.0000000000
H          H       0.25256   0.70432   0.76403   0.0000000000
C          C       0.50039   0.02748   0.72826   0.0000000000
C          C       0.00158   0.52720   0.73284   0.0000000000
C          C       0.50094   0.97282   0.72998   0.0000000000
C          C       0.00128   0.47254   0.73469   0.0000000000
C          C       0.54156   0.01364   0.74145   0.0000000000
C          C       0.04258   0.51315   0.74681   0.0000000000
C          C       0.54181   0.98694   0.74221   0.0000000000
C          C       0.04243   0.48645   0.74764   0.0000000000
C          C       0.45950   0.98652   0.71635   0.0000000000
C          C       0.96001   0.48644   0.72048   0.0000000000
C          C       0.45921   0.01352   0.71549   0.0000000000
C          C       0.96016   0.51343   0.71953   0.0000000000
N          N       0.58388   0.02318   0.75471   0.0000000000
N          N       0.08507   0.52251   0.76070   0.0000000000
N          N       0.58429   0.97765   0.75598   0.0000000000
N          N       0.08482   0.47697   0.76199   0.0000000000
S          S       0.62471   0.00054   0.76905   0.0000000000
S          S       0.12562   0.49968   0.77570   0.0000000000
N          N       0.74014   0.69729   0.70316   0.0000000000
S          S       0.68486   0.68898   0.68668   0.0000000000
N          N       0.67182   0.72005   0.70283   0.0000000000
H          H       0.42881   0.02287   0.70688   0.0000000000
H          H       0.92986   0.52297   0.71026   0.0000000000
H          H       0.42930   0.97694   0.70836   0.0000000000
H          H       0.92959   0.47706   0.71196   0.0000000000
