data_crystal

_cell_length_a    31.49350
_cell_length_b    30.20940
_cell_length_c    7.02140
_cell_angle_alpha 90.00000
_cell_angle_beta  90.00000
_cell_angle_gamma 116.16110

_space_group_name_Hall 'P 1'
_space_group_name_H-M_alt  'P 1'

loop_
_symmetry_equiv_pos_as_xyz
'x,y,z' 

loop_
_atom_site_label
_atom_site_type_symbol
_atom_site_fract_x
_atom_site_fract_y
_atom_site_fract_z
C          C       0.52780   0.48799   0.25000 
C          C       0.52779   0.53565   0.25000 
C          C       0.57240   0.57857   0.25000 
C          C       0.61495   0.57475   0.25000 
C          C       0.61495   0.52902   0.25000 
C          C       0.57241   0.48608   0.25000 
O          O       0.65954   0.53353   0.25000 
B          B       0.68917   0.58600   0.25000 
O          O       0.65953   0.61122   0.25000 
C          C       0.48395   0.44418   0.25000 
C          C       0.43981   0.44769   0.25000 
C          C       0.48244   0.39614   0.25000 
C          C       0.43955   0.35365   0.25000 
C          C       0.39717   0.35694   0.25000 
C          C       0.39677   0.40293   0.25000 
O          O       0.36019   0.31166   0.25000 
B          B       0.38144   0.27802   0.25000 
O          O       0.43218   0.30616   0.25000 
C          C       0.48395   0.53915   0.25000 
C          C       0.43981   0.49505   0.25000 
C          C       0.39676   0.50023   0.25000 
C          C       0.39715   0.54660   0.25000 
C          C       0.43953   0.58885   0.25000 
C          C       0.48243   0.58579   0.25000 
O          O       0.43215   0.62956   0.25000 
B          B       0.38141   0.61104   0.25000 
O          O       0.36017   0.55787   0.25000 
H          H       0.57593   0.61362   0.25000 
H          H       0.57595   0.45428   0.25000 
H          H       0.51162   0.38999   0.25000 
H          H       0.36407   0.40176   0.25000 
H          H       0.36406   0.47134   0.25000 
H          H       0.51160   0.61877   0.25000 
C          C       0.13139   0.85346   0.25000 
C          C       0.13139   0.80578   0.25000 
C          C       0.08679   0.76286   0.25000 
C          C       0.04425   0.76670   0.25000 
C          C       0.04425   0.81244   0.25000 
C          C       0.08679   0.85538   0.25000 
O          O       0.99966   0.80792   0.25000 
B          B       0.97002   0.75545   0.25000 
O          O       0.99967   0.73024   0.25000 
C          C       0.17522   0.89730   0.25000 
C          C       0.21931   0.89370   0.25000 
C          C       0.17681   0.94540   0.25000 
C          C       0.21976   0.98791   0.25000 
C          C       0.26202   0.98438   0.25000 
C          C       0.26237   0.93839   0.25000 
O          O       0.29915   0.02947   0.25000 
B          B       0.27824   0.06338   0.25000 
O          O       0.22744   0.03555   0.25000 
C          C       0.17521   0.80222   0.25000 
C          C       0.21931   0.84634   0.25000 
C          C       0.26237   0.84123   0.25000 
C          C       0.26200   0.79492   0.25000 
C          C       0.21974   0.75254   0.25000 
C          C       0.17680   0.75557   0.25000 
O          O       0.22742   0.71196   0.25000 
B          B       0.27821   0.73082   0.25000 
O          O       0.29913   0.78396   0.25000 
H          H       0.08327   0.72782   0.25000 
H          H       0.08328   0.88719   0.25000 
H          H       0.14765   0.95158   0.25000 
H          H       0.29507   0.93957   0.25000 
H          H       0.29507   0.87011   0.25000 
H          H       0.14763   0.72259   0.25000 
C          C       0.91741   0.73125   0.25000 
C          C       0.84245   0.73726   0.25000 
C          C       0.89215   0.67936   0.25000 
C          C       0.89220   0.75996   0.25000 
C          C       0.84218   0.65611   0.25000 
H          H       0.82501   0.75894   0.25000 
H          H       0.91019   0.65828   0.25000 
H          H       0.90982   0.79766   0.25000 
C          C       0.74179   0.61020   0.25000 
C          C       0.81674   0.60420   0.25000 
C          C       0.76704   0.66210   0.25000 
C          C       0.76699   0.58150   0.25000 
C          C       0.81701   0.68535   0.25000 
H          H       0.83418   0.58251   0.25000 
H          H       0.74899   0.68318   0.25000 
H          H       0.74936   0.54380   0.25000 
C          C       0.30475   0.70049   0.25000 
C          C       0.30529   0.61942   0.25000 
C          C       0.35465   0.72244   0.25000 
C          C       0.28036   0.64843   0.25000 
C          C       0.37933   0.69379   0.25000 
N          N       0.38411   0.77073   0.25000 
S          S       0.44171   0.78283   0.25000 
N          N       0.42622   0.72185   0.25000 
H          H       0.28655   0.58182   0.25000 
H          H       0.24418   0.63114   0.25000 
C          C       0.35530   0.64179   0.25000 
C          C       0.30477   0.11810   0.25000 
C          C       0.35534   0.22326   0.25000 
C          C       0.28034   0.14771   0.25000 
C          C       0.37937   0.19338   0.25000 
C          C       0.30534   0.19963   0.25000 
C          C       0.35469   0.14204   0.25000 
N          N       0.42626   0.20842   0.25000 
S          S       0.44174   0.16167   0.25000 
N          N       0.38415   0.12083   0.25000 
H          H       0.24415   0.13178   0.25000 
H          H       0.28664   0.22003   0.25000 
C          C       0.52780   0.48799   0.75000 
C          C       0.52779   0.53565   0.75000 
C          C       0.57240   0.57857   0.75000 
C          C       0.61495   0.57475   0.75000 
C          C       0.61495   0.52902   0.75000 
C          C       0.57241   0.48608   0.75000 
O          O       0.65954   0.53353   0.75000 
B          B       0.68917   0.58600   0.75000 
O          O       0.65953   0.61122   0.75000 
C          C       0.48395   0.44418   0.75000 
C          C       0.43981   0.44769   0.75000 
C          C       0.48244   0.39614   0.75000 
C          C       0.43955   0.35365   0.75000 
C          C       0.39717   0.35694   0.75000 
C          C       0.39677   0.40293   0.75000 
O          O       0.36019   0.31166   0.75000 
B          B       0.38144   0.27802   0.75000 
O          O       0.43218   0.30616   0.75000 
C          C       0.48395   0.53915   0.75000 
C          C       0.43981   0.49505   0.75000 
C          C       0.39676   0.50023   0.75000 
C          C       0.39715   0.54660   0.75000 
C          C       0.43953   0.58885   0.75000 
C          C       0.48243   0.58579   0.75000 
O          O       0.43215   0.62956   0.75000 
B          B       0.38141   0.61104   0.75000 
O          O       0.36017   0.55787   0.75000 
H          H       0.57593   0.61362   0.75000 
H          H       0.57595   0.45428   0.75000 
H          H       0.51162   0.38999   0.75000 
H          H       0.36407   0.40176   0.75000 
H          H       0.36406   0.47134   0.75000 
H          H       0.51160   0.61877   0.75000 
C          C       0.13139   0.85346   0.75000 
C          C       0.13139   0.80578   0.75000 
C          C       0.08679   0.76286   0.75000 
C          C       0.04425   0.76670   0.75000 
C          C       0.04425   0.81244   0.75000 
C          C       0.08679   0.85538   0.75000 
O          O       0.99966   0.80792   0.75000 
B          B       0.97002   0.75545   0.75000 
O          O       0.99967   0.73024   0.75000 
C          C       0.17522   0.89730   0.75000 
C          C       0.21931   0.89370   0.75000 
C          C       0.17681   0.94540   0.75000 
C          C       0.21976   0.98791   0.75000 
C          C       0.26202   0.98438   0.75000 
C          C       0.26237   0.93839   0.75000 
O          O       0.29915   0.02947   0.75000 
B          B       0.27824   0.06338   0.75000 
O          O       0.22744   0.03555   0.75000 
C          C       0.17521   0.80222   0.75000 
C          C       0.21931   0.84634   0.75000 
C          C       0.26237   0.84123   0.75000 
C          C       0.26200   0.79492   0.75000 
C          C       0.21974   0.75254   0.75000 
C          C       0.17680   0.75557   0.75000 
O          O       0.22742   0.71196   0.75000 
B          B       0.27821   0.73082   0.75000 
O          O       0.29913   0.78396   0.75000 
H          H       0.08327   0.72782   0.75000 
H          H       0.08328   0.88719   0.75000 
H          H       0.14765   0.95158   0.75000 
H          H       0.29507   0.93957   0.75000 
H          H       0.29507   0.87011   0.75000 
H          H       0.14763   0.72259   0.75000 
C          C       0.91741   0.73125   0.75000 
C          C       0.84245   0.73726   0.75000 
C          C       0.89215   0.67936   0.75000 
C          C       0.89220   0.75996   0.75000 
C          C       0.84218   0.65611   0.75000 
H          H       0.82501   0.75894   0.75000 
H          H       0.91019   0.65828   0.75000 
H          H       0.90982   0.79766   0.75000 
C          C       0.74179   0.61020   0.75000 
C          C       0.81674   0.60420   0.75000 
C          C       0.76704   0.66210   0.75000 
C          C       0.76699   0.58150   0.75000 
C          C       0.81701   0.68535   0.75000 
H          H       0.83418   0.58251   0.75000 
H          H       0.74899   0.68318   0.75000 
H          H       0.74936   0.54380   0.75000 
C          C       0.30475   0.70049   0.75000 
C          C       0.30529   0.61942   0.75000 
C          C       0.35465   0.72244   0.75000 
C          C       0.28036   0.64843   0.75000 
C          C       0.37933   0.69379   0.75000 
N          N       0.38411   0.77073   0.75000 
S          S       0.44171   0.78283   0.75000 
N          N       0.42622   0.72185   0.75000 
H          H       0.28655   0.58182   0.75000 
H          H       0.24418   0.63114   0.75000 
C          C       0.35530   0.64179   0.75000 
C          C       0.30477   0.11810   0.75000 
C          C       0.35534   0.22326   0.75000 
C          C       0.28034   0.14771   0.75000 
C          C       0.37937   0.19338   0.75000 
C          C       0.30534   0.19963   0.75000 
C          C       0.35469   0.14204   0.75000 
N          N       0.42626   0.20842   0.75000 
S          S       0.44174   0.16167   0.75000 
N          N       0.38415   0.12083   0.75000 
H          H       0.24415   0.13178   0.75000 
H          H       0.28664   0.22003   0.75000 
