data_crystal
 
_cell_length_a    33.83300
_cell_length_b    3.55610
_cell_length_c    31.41130
_cell_angle_alpha 90.00000
_cell_angle_beta  65.51750
_cell_angle_gamma 90.00000
 
_symmetry_space_group_name_Hall 'P 1'
_symmetry_space_group_name_H-M  'P 1'
 
loop_
_symmetry_equiv_pos_as_xyz
 'x,y,z' 
 
loop_
_atom_site_label
_atom_site_type_symbol
_atom_site_fract_x
_atom_site_fract_y
_atom_site_fract_z
_atom_site_charge
C          C       0.30981   0.45734   0.32797   0.0000000000
C          C       0.31159   0.43850   0.37293   0.0000000000
C          C       0.27173   0.39215   0.41361   0.0000000000
C          C       0.23182   0.38377   0.41036   0.0000000000
C          C       0.23005   0.41140   0.36727   0.0000000000
C          C       0.26809   0.44679   0.32653   0.0000000000
C          C       0.69018   0.45734   0.67203   0.0000000000
C          C       0.68841   0.43850   0.62707   0.0000000000
C          C       0.72827   0.39215   0.58639   0.0000000000
C          C       0.76818   0.38377   0.58964   0.0000000000
C          C       0.76995   0.41140   0.63273   0.0000000000
C          C       0.73191   0.44679   0.67347   0.0000000000
O          O       0.18871   0.39667   0.37162   0.0000000000
O          O       0.81129   0.39667   0.62838   0.0000000000
B          B       0.16299   0.35936   0.42125   0.0000000000
B          B       0.83701   0.35936   0.57875   0.0000000000
O          O       0.19160   0.35041   0.44481   0.0000000000
O          O       0.80840   0.35041   0.55519   0.0000000000
C          C       0.34910   0.48513   0.28631   0.0000000000
C          C       0.65090   0.48513   0.71369   0.0000000000
C          C       0.39035   0.50216   0.28941   0.0000000000
C          C       0.60965   0.50216   0.71059   0.0000000000
C          C       0.34884   0.49375   0.24088   0.0000000000
C          C       0.65116   0.49375   0.75912   0.0000000000
C          C       0.38732   0.51896   0.20047   0.0000000000
C          C       0.61268   0.51896   0.79953   0.0000000000
C          C       0.42692   0.53529   0.20345   0.0000000000
C          C       0.57308   0.53529   0.79654   0.0000000000
C          C       0.42889   0.52786   0.24692   0.0000000000
C          C       0.57111   0.52786   0.75308   0.0000000000
H          H       0.26998   0.36171   0.44652   0.0000000000
H          H       0.73002   0.36171   0.55348   0.0000000000
H          H       0.26359   0.46354   0.29656   0.0000000000
H          H       0.73641   0.46354   0.70344   0.0000000000
H          H       0.32143   0.48096   0.23523   0.0000000000
H          H       0.67857   0.48096   0.76476   0.0000000000
H          H       0.45931   0.54171   0.24564   0.0000000000
H          H       0.54069   0.54171   0.75436   0.0000000000
H          H       0.46174   0.53170   0.31139   0.0000000000
H          H       0.53826   0.53170   0.68861   0.0000000000
H          H       0.32931   0.45787   0.45152   0.0000000000
H          H       0.67069   0.45787   0.54848   0.0000000000
C          C       0.11477   0.33999   0.44446   0.0000000000
C          C       0.88523   0.33999   0.55554   0.0000000000
C          C       0.09031   0.33092   0.41731   0.0000000000
C          C       0.90969   0.33092   0.58269   0.0000000000
C          C       0.04446   0.32681   0.43890   0.0000000000
C          C       0.95554   0.32681   0.56110   0.0000000000
C          C       0.09334   0.33512   0.49380   0.0000000000
C          C       0.90666   0.33512   0.50620   0.0000000000
C          C       0.04753   0.32820   0.51658   0.0000000000
C          C       0.95247   0.32820   0.48342   0.0000000000
C          C       0.02323   0.32676   0.48875   0.0000000000
C          C       0.97677   0.32676   0.51125   0.0000000000
C          C       0.02596   0.32605   0.56616   0.0000000000
C          C       0.97404   0.32605   0.43384   0.0000000000
H          H       0.10758   0.32683   0.37750   0.0000000000
H          H       0.11305   0.33676   0.51573   0.0000000000
H          H       0.04564   0.32520   0.58812   0.0000000000
H          H       0.89242   0.32683   0.62250   0.0000000000
H          H       0.88695   0.33676   0.48427   0.0000000000
H          H       0.95436   0.32520   0.41188   0.0000000000
O          O       0.45994   0.55645   0.16057   0.0000000000
O          O       0.54006   0.55645   0.83943   0.0000000000
B          B       0.43891   0.55287   0.12896   0.0000000000
B          B       0.56109   0.55287   0.87104   0.0000000000
O          O       0.39258   0.52943   0.15548   0.0000000000
O          O       0.60742   0.52943   0.84452   0.0000000000
C          C       0.35247   0.46573   0.37607   0.0000000000
C          C       0.39201   0.49419   0.33419   0.0000000000
C          C       0.43228   0.51364   0.33886   0.0000000000
C          C       0.43345   0.51159   0.38274   0.0000000000
C          C       0.39543   0.49196   0.42296   0.0000000000
C          C       0.35540   0.46968   0.42024   0.0000000000
C          C       0.64753   0.46573   0.62393   0.0000000000
C          C       0.60799   0.49419   0.66581   0.0000000000
C          C       0.56772   0.51364   0.66114   0.0000000000
C          C       0.56655   0.51159   0.61726   0.0000000000
C          C       0.60457   0.49196   0.57704   0.0000000000
C          C       0.64460   0.46968   0.57976   0.0000000000
O          O       0.40368   0.49688   0.46150   0.0000000000
O          O       0.59632   0.49688   0.53850   0.0000000000
B          B       0.45034   0.51777   0.44351   0.0000000000
B          B       0.54966   0.51777   0.55649   0.0000000000
O          O       0.46834   0.52660   0.39312   0.0000000000
O          O       0.53166   0.52660   0.60688   0.0000000000
C          C       0.01984   0.32496   0.41169   0.0000000000
H          H       0.03706   0.32258   0.37187   0.0000000000
C          C       0.98016   0.32496   0.58831   0.0000000000
H          H       0.96294   0.32258   0.62813   0.0000000000
C          C       0.47576   0.52492   0.47242   0.0000000000
C          C       0.45438   0.52610   0.52169   0.0000000000
C          C       0.52424   0.52492   0.52758   0.0000000000
C          C       0.54562   0.52610   0.47831   0.0000000000
H          H       0.42119   0.52537   0.53814   0.0000000000
H          H       0.57881   0.52537   0.46186   0.0000000000
C          C       0.52159   0.52769   0.45095   0.0000000000
C          C       0.47841   0.52769   0.54905   0.0000000000
H          H       0.53792   0.52879   0.41527   0.0000000000
H          H       0.46208   0.52879   0.58473   0.0000000000
C          C       0.53867   0.56680   0.92279   0.0000000000
C          C       0.46133   0.56680   0.07721   0.0000000000
S          S       0.56761   0.57248   0.95763   0.0000000000
S          S       0.43239   0.57248   0.04237   0.0000000000
C          C       0.51779   0.57380   0.00515   0.0000000000
C          C       0.50647   0.57120   0.05273   0.0000000000
C          C       0.48221   0.57380   0.99485   0.0000000000
C          C       0.49353   0.57120   0.94727   0.0000000000
H          H       0.47170   0.56973   0.93261   0.0000000000
H          H       0.52830   0.56973   0.06739   0.0000000000
