data_crystal
 
_cell_length_a    30.20940
_cell_length_b    3.51070
_cell_length_c    31.49350
_cell_angle_alpha 90.00000
_cell_angle_beta  116.16110
_cell_angle_gamma 90.00000
 
_symmetry_space_group_name_Hall 'P 1'
_symmetry_space_group_name_H-M  'P 1'
 
loop_
_symmetry_equiv_pos_as_xyz
 'x,y,z' 
 
loop_
_atom_site_label
_atom_site_type_symbol
_atom_site_fract_x
_atom_site_fract_y
_atom_site_fract_z
_atom_site_charge
C          C       0.48799   0.50000   0.52780   0.0000000000
C          C       0.53565   0.50000   0.52779   0.0000000000
C          C       0.57857   0.50000   0.57240   0.0000000000
C          C       0.57475   0.50000   0.61495   0.0000000000
C          C       0.52902   0.50000   0.61495   0.0000000000
C          C       0.48608   0.50000   0.57241   0.0000000000
O          O       0.53353   0.50000   0.65954   0.0000000000
B          B       0.58600   0.50000   0.68917   0.0000000000
O          O       0.61122   0.50000   0.65953   0.0000000000
C          C       0.44418   0.50000   0.48395   0.0000000000
C          C       0.44769   0.50000   0.43981   0.0000000000
C          C       0.39614   0.50000   0.48244   0.0000000000
C          C       0.35365   0.50000   0.43955   0.0000000000
C          C       0.35694   0.50000   0.39717   0.0000000000
C          C       0.40293   0.50000   0.39677   0.0000000000
O          O       0.31166   0.50000   0.36019   0.0000000000
B          B       0.27802   0.50000   0.38144   0.0000000000
O          O       0.30616   0.50000   0.43218   0.0000000000
C          C       0.53915   0.50000   0.48395   0.0000000000
C          C       0.49505   0.50000   0.43981   0.0000000000
C          C       0.50023   0.50000   0.39676   0.0000000000
C          C       0.54660   0.50000   0.39715   0.0000000000
C          C       0.58885   0.50000   0.43953   0.0000000000
C          C       0.58579   0.50000   0.48243   0.0000000000
O          O       0.62956   0.50000   0.43215   0.0000000000
B          B       0.61104   0.50000   0.38141   0.0000000000
O          O       0.55787   0.50000   0.36017   0.0000000000
H          H       0.61362   0.50000   0.57593   0.0000000000
H          H       0.45428   0.50000   0.57595   0.0000000000
H          H       0.38999   0.50000   0.51162   0.0000000000
H          H       0.40176   0.50000   0.36407   0.0000000000
H          H       0.47134   0.50000   0.36406   0.0000000000
H          H       0.61877   0.50000   0.51160   0.0000000000
C          C       0.85346   0.50000   0.13139   0.0000000000
C          C       0.80578   0.50000   0.13139   0.0000000000
C          C       0.76286   0.50000   0.08679   0.0000000000
C          C       0.76670   0.50000   0.04425   0.0000000000
C          C       0.81244   0.50000   0.04425   0.0000000000
C          C       0.85538   0.50000   0.08679   0.0000000000
O          O       0.80792   0.50000   0.99966   0.0000000000
B          B       0.75545   0.50000   0.97002   0.0000000000
O          O       0.73024   0.50000   0.99967   0.0000000000
C          C       0.89730   0.50000   0.17522   0.0000000000
C          C       0.89370   0.50000   0.21931   0.0000000000
C          C       0.94540   0.50000   0.17681   0.0000000000
C          C       0.98791   0.50000   0.21976   0.0000000000
C          C       0.98438   0.50000   0.26202   0.0000000000
C          C       0.93839   0.50000   0.26237   0.0000000000
O          O       0.02947   0.50000   0.29915   0.0000000000
B          B       0.06338   0.50000   0.27824   0.0000000000
O          O       0.03555   0.50000   0.22744   0.0000000000
C          C       0.80222   0.50000   0.17521   0.0000000000
C          C       0.84634   0.50000   0.21931   0.0000000000
C          C       0.84123   0.50000   0.26237   0.0000000000
C          C       0.79492   0.50000   0.26200   0.0000000000
C          C       0.75254   0.50000   0.21974   0.0000000000
C          C       0.75557   0.50000   0.17680   0.0000000000
O          O       0.71196   0.50000   0.22742   0.0000000000
B          B       0.73082   0.50000   0.27821   0.0000000000
O          O       0.78396   0.50000   0.29913   0.0000000000
H          H       0.72782   0.50000   0.08327   0.0000000000
H          H       0.88719   0.50000   0.08328   0.0000000000
H          H       0.95158   0.50000   0.14765   0.0000000000
H          H       0.93957   0.50000   0.29507   0.0000000000
H          H       0.87011   0.50000   0.29507   0.0000000000
H          H       0.72259   0.50000   0.14763   0.0000000000
C          C       0.73125   0.50000   0.91741   0.0000000000
C          C       0.73726   0.50000   0.84245   0.0000000000
C          C       0.67936   0.50000   0.89215   0.0000000000
C          C       0.75996   0.50000   0.89220   0.0000000000
C          C       0.65611   0.50000   0.84218   0.0000000000
H          H       0.75894   0.50000   0.82501   0.0000000000
H          H       0.65828   0.50000   0.91019   0.0000000000
H          H       0.79766   0.50000   0.90982   0.0000000000
C          C       0.61020   0.50000   0.74179   0.0000000000
C          C       0.60420   0.50000   0.81674   0.0000000000
C          C       0.66210   0.50000   0.76704   0.0000000000
C          C       0.58150   0.50000   0.76699   0.0000000000
C          C       0.68535   0.50000   0.81701   0.0000000000
H          H       0.58251   0.50000   0.83418   0.0000000000
H          H       0.68318   0.50000   0.74899   0.0000000000
H          H       0.54380   0.50000   0.74936   0.0000000000
C          C       0.70049   0.50000   0.30475   0.0000000000
C          C       0.61942   0.50000   0.30529   0.0000000000
C          C       0.72244   0.50000   0.35465   0.0000000000
C          C       0.64843   0.50000   0.28036   0.0000000000
C          C       0.69379   0.50000   0.37933   0.0000000000
N          N       0.77073   0.50000   0.38411   0.0000000000
S          S       0.78283   0.50000   0.44171   0.0000000000
N          N       0.72185   0.50000   0.42622   0.0000000000
H          H       0.58182   0.50000   0.28655   0.0000000000
H          H       0.63114   0.50000   0.24418   0.0000000000
C          C       0.64179   0.50000   0.35530   0.0000000000
C          C       0.11810   0.50000   0.30477   0.0000000000
C          C       0.22326   0.50000   0.35534   0.0000000000
C          C       0.14771   0.50000   0.28034   0.0000000000
C          C       0.19338   0.50000   0.37937   0.0000000000
C          C       0.19963   0.50000   0.30534   0.0000000000
C          C       0.14204   0.50000   0.35469   0.0000000000
N          N       0.20842   0.50000   0.42626   0.0000000000
S          S       0.16167   0.50000   0.44174   0.0000000000
N          N       0.12083   0.50000   0.38415   0.0000000000
H          H       0.13178   0.50000   0.24415   0.0000000000
H          H       0.22003   0.50000   0.28664   0.0000000000
