data_crystal
 
_cell_length_a    27.35690
_cell_length_b    23.10490
_cell_length_c    6.98700
_cell_angle_alpha 90.00000
_cell_angle_beta  90.00000
_cell_angle_gamma 90.00000
 
_symmetry_space_group_name_Hall 'P 1'
_symmetry_space_group_name_H-M  'P 1'
 
loop_
_symmetry_equiv_pos_as_xyz
 'x,y,z' 
 
loop_
_atom_site_label
_atom_site_type_symbol
_atom_site_fract_x
_atom_site_fract_y
_atom_site_fract_z
_atom_site_charge
C          C       0.73940   0.96961   0.25000   0.0000000000
C          C       0.26060   0.03039   0.25000   0.0000000000
C          C       0.26060   0.96961   0.25000   0.0000000000
C          C       0.73940   0.03039   0.25000   0.0000000000
C          C       0.69551   0.06222   0.25000   0.0000000000
C          C       0.30449   0.93778   0.25000   0.0000000000
C          C       0.30449   0.06222   0.25000   0.0000000000
C          C       0.69551   0.93778   0.25000   0.0000000000
C          C       0.65164   0.03025   0.25000   0.0000000000
C          C       0.34836   0.96975   0.25000   0.0000000000
C          C       0.34836   0.03025   0.25000   0.0000000000
C          C       0.65164   0.96975   0.25000   0.0000000000
C          C       0.60306   0.04791   0.25000   0.0000000000
C          C       0.39694   0.95209   0.25000   0.0000000000
C          C       0.39694   0.04791   0.25000   0.0000000000
C          C       0.60306   0.95209   0.25000   0.0000000000
C          C       0.50000   0.56143   0.25000   0.0000000000
C          C       0.50000   0.43857   0.25000   0.0000000000
C          C       0.45554   0.53047   0.25000   0.0000000000
C          C       0.54446   0.46953   0.25000   0.0000000000
C          C       0.54446   0.53047   0.25000   0.0000000000
C          C       0.45554   0.46953   0.25000   0.0000000000
H          H       0.42285   0.55199   0.25000   0.0000000000
H          H       0.57715   0.44801   0.25000   0.0000000000
H          H       0.57715   0.55199   0.25000   0.0000000000
H          H       0.42285   0.44801   0.25000   0.0000000000
C          C       0.02598   0.00000   0.25000   0.0000000000
C          C       0.97402   0.00000   0.25000   0.0000000000
C          C       0.02568   0.89417   0.25000   0.0000000000
C          C       0.97432   0.10582   0.25000   0.0000000000
C          C       0.97432   0.89417   0.25000   0.0000000000
C          C       0.02568   0.10582   0.25000   0.0000000000
C          C       0.05194   0.94674   0.25000   0.0000000000
C          C       0.94806   0.05326   0.25000   0.0000000000
C          C       0.94806   0.94674   0.25000   0.0000000000
C          C       0.05194   0.05326   0.25000   0.0000000000
C          C       0.10353   0.94728   0.25000   0.0000000000
C          C       0.89647   0.05271   0.25000   0.0000000000
C          C       0.89647   0.94728   0.25000   0.0000000000
C          C       0.10353   0.05271   0.25000   0.0000000000
H          H       0.12225   0.90889   0.25000   0.0000000000
H          H       0.87775   0.09110   0.25000   0.0000000000
H          H       0.87775   0.90889   0.25000   0.0000000000
H          H       0.12225   0.09110   0.25000   0.0000000000
H          H       0.04372   0.85536   0.25000   0.0000000000
H          H       0.95628   0.14463   0.25000   0.0000000000
H          H       0.95628   0.85536   0.25000   0.0000000000
H          H       0.04372   0.14463   0.25000   0.0000000000
Ni         Ni      0.50000   0.00000   0.25000   0.0000000000
O          O       0.78557   0.05089   0.25000   0.0000000000
O          O       0.21443   0.94911   0.25000   0.0000000000
O          O       0.21443   0.05089   0.25000   0.0000000000
O          O       0.78557   0.94911   0.25000   0.0000000000
H          H       0.69564   0.10642   0.25000   0.0000000000
H          H       0.30436   0.89357   0.25000   0.0000000000
H          H       0.30436   0.10642   0.25000   0.0000000000
H          H       0.69564   0.89357   0.25000   0.0000000000
C          C       0.47434   0.71659   0.25000   0.0000000000
C          C       0.55255   0.76855   0.25000   0.0000000000
C          C       0.52559   0.82052   0.25000   0.0000000000
C          C       0.54074   0.87799   0.25000   0.0000000000
C          C       0.52566   0.28341   0.25000   0.0000000000
C          C       0.44745   0.23145   0.25000   0.0000000000
C          C       0.47441   0.17948   0.25000   0.0000000000
C          C       0.45926   0.12201   0.25000   0.0000000000
C          C       0.52566   0.71659   0.25000   0.0000000000
C          C       0.44745   0.76855   0.25000   0.0000000000
C          C       0.47441   0.82052   0.25000   0.0000000000
C          C       0.45926   0.87799   0.25000   0.0000000000
C          C       0.47434   0.28341   0.25000   0.0000000000
C          C       0.55255   0.23145   0.25000   0.0000000000
C          C       0.52559   0.17948   0.25000   0.0000000000
C          C       0.54074   0.12201   0.25000   0.0000000000
O          O       0.54298   0.66193   0.25000   0.0000000000
O          O       0.45701   0.33807   0.25000   0.0000000000
O          O       0.45701   0.66193   0.25000   0.0000000000
O          O       0.54298   0.33807   0.25000   0.0000000000
H          H       0.58989   0.76837   0.25000   0.0000000000
H          H       0.41011   0.23163   0.25000   0.0000000000
H          H       0.41011   0.76837   0.25000   0.0000000000
H          H       0.58989   0.23163   0.25000   0.0000000000
N          N       0.58754   0.10340   0.25000   0.0000000000
N          N       0.41246   0.89660   0.25000   0.0000000000
N          N       0.41246   0.10340   0.25000   0.0000000000
N          N       0.58754   0.89660   0.25000   0.0000000000
B          B       0.81609   0.00000   0.25000   0.0000000000
B          B       0.18391   0.00000   0.25000   0.0000000000
N          N       0.57489   0.00000   0.25000   0.0000000000
N          N       0.42511   0.00000   0.25000   0.0000000000
B          B       0.50000   0.62580   0.25000   0.0000000000
B          B       0.50000   0.37420   0.25000   0.0000000000
N          N       0.50000   0.91069   0.25000   0.0000000000
N          N       0.50000   0.08931   0.25000   0.0000000000
N          N       0.12953   0.00000   0.25000   0.0000000000
N          N       0.87047   0.00000   0.25000   0.0000000000
C          C       0.73940   0.96961   0.75000   0.0000000000
C          C       0.26060   0.03039   0.75000   0.0000000000
C          C       0.26060   0.96961   0.75000   0.0000000000
C          C       0.73940   0.03039   0.75000   0.0000000000
C          C       0.69551   0.06222   0.75000   0.0000000000
C          C       0.30449   0.93778   0.75000   0.0000000000
C          C       0.30449   0.06222   0.75000   0.0000000000
C          C       0.69551   0.93778   0.75000   0.0000000000
C          C       0.65164   0.03025   0.75000   0.0000000000
C          C       0.34836   0.96975   0.75000   0.0000000000
C          C       0.34836   0.03025   0.75000   0.0000000000
C          C       0.65164   0.96975   0.75000   0.0000000000
C          C       0.60306   0.04791   0.75000   0.0000000000
C          C       0.39694   0.95209   0.75000   0.0000000000
C          C       0.39694   0.04791   0.75000   0.0000000000
C          C       0.60306   0.95209   0.75000   0.0000000000
C          C       0.50000   0.56143   0.75000   0.0000000000
C          C       0.50000   0.43857   0.75000   0.0000000000
C          C       0.45554   0.53047   0.75000   0.0000000000
C          C       0.54446   0.46953   0.75000   0.0000000000
C          C       0.54446   0.53047   0.75000   0.0000000000
C          C       0.45554   0.46953   0.75000   0.0000000000
H          H       0.42285   0.55199   0.75000   0.0000000000
H          H       0.57715   0.44801   0.75000   0.0000000000
H          H       0.57715   0.55199   0.75000   0.0000000000
H          H       0.42285   0.44801   0.75000   0.0000000000
C          C       0.02598   0.00000   0.75000   0.0000000000
C          C       0.97402   0.00000   0.75000   0.0000000000
C          C       0.02568   0.89417   0.75000   0.0000000000
C          C       0.97432   0.10582   0.75000   0.0000000000
C          C       0.97432   0.89417   0.75000   0.0000000000
C          C       0.02568   0.10582   0.75000   0.0000000000
C          C       0.05194   0.94674   0.75000   0.0000000000
C          C       0.94806   0.05326   0.75000   0.0000000000
C          C       0.94806   0.94674   0.75000   0.0000000000
C          C       0.05194   0.05326   0.75000   0.0000000000
C          C       0.10353   0.94728   0.75000   0.0000000000
C          C       0.89647   0.05271   0.75000   0.0000000000
C          C       0.89647   0.94728   0.75000   0.0000000000
C          C       0.10353   0.05271   0.75000   0.0000000000
H          H       0.12225   0.90889   0.75000   0.0000000000
H          H       0.87775   0.09110   0.75000   0.0000000000
H          H       0.87775   0.90889   0.75000   0.0000000000
H          H       0.12225   0.09110   0.75000   0.0000000000
H          H       0.04372   0.85536   0.75000   0.0000000000
H          H       0.95628   0.14463   0.75000   0.0000000000
H          H       0.95628   0.85536   0.75000   0.0000000000
H          H       0.04372   0.14463   0.75000   0.0000000000
Ni         Ni      0.50000   0.00000   0.75000   0.0000000000
O          O       0.78557   0.05089   0.75000   0.0000000000
O          O       0.21443   0.94911   0.75000   0.0000000000
O          O       0.21443   0.05089   0.75000   0.0000000000
O          O       0.78557   0.94911   0.75000   0.0000000000
H          H       0.69564   0.10642   0.75000   0.0000000000
H          H       0.30436   0.89357   0.75000   0.0000000000
H          H       0.30436   0.10642   0.75000   0.0000000000
H          H       0.69564   0.89357   0.75000   0.0000000000
C          C       0.47434   0.71659   0.75000   0.0000000000
C          C       0.55255   0.76855   0.75000   0.0000000000
C          C       0.52559   0.82052   0.75000   0.0000000000
C          C       0.54074   0.87799   0.75000   0.0000000000
C          C       0.52566   0.28341   0.75000   0.0000000000
C          C       0.44745   0.23145   0.75000   0.0000000000
C          C       0.47441   0.17948   0.75000   0.0000000000
C          C       0.45926   0.12201   0.75000   0.0000000000
C          C       0.52566   0.71659   0.75000   0.0000000000
C          C       0.44745   0.76855   0.75000   0.0000000000
C          C       0.47441   0.82052   0.75000   0.0000000000
C          C       0.45926   0.87799   0.75000   0.0000000000
C          C       0.47434   0.28341   0.75000   0.0000000000
C          C       0.55255   0.23145   0.75000   0.0000000000
C          C       0.52559   0.17948   0.75000   0.0000000000
C          C       0.54074   0.12201   0.75000   0.0000000000
O          O       0.54298   0.66193   0.75000   0.0000000000
O          O       0.45701   0.33807   0.75000   0.0000000000
O          O       0.45701   0.66193   0.75000   0.0000000000
O          O       0.54298   0.33807   0.75000   0.0000000000
H          H       0.58989   0.76837   0.75000   0.0000000000
H          H       0.41011   0.23163   0.75000   0.0000000000
H          H       0.41011   0.76837   0.75000   0.0000000000
H          H       0.58989   0.23163   0.75000   0.0000000000
N          N       0.58754   0.10340   0.75000   0.0000000000
N          N       0.41246   0.89660   0.75000   0.0000000000
N          N       0.41246   0.10340   0.75000   0.0000000000
N          N       0.58754   0.89660   0.75000   0.0000000000
B          B       0.81609   0.00000   0.75000   0.0000000000
B          B       0.18391   0.00000   0.75000   0.0000000000
N          N       0.57489   0.00000   0.75000   0.0000000000
N          N       0.42511   0.00000   0.75000   0.0000000000
B          B       0.50000   0.62580   0.75000   0.0000000000
B          B       0.50000   0.37420   0.75000   0.0000000000
N          N       0.50000   0.91069   0.75000   0.0000000000
N          N       0.50000   0.08931   0.75000   0.0000000000
N          N       0.12953   0.00000   0.75000   0.0000000000
N          N       0.87047   0.00000   0.75000   0.0000000000
