data_crystal
 
_cell_length_a    33.71600
_cell_length_b    53.96920
_cell_length_c    6.80000
_cell_angle_alpha 90.00000
_cell_angle_beta  90.00000
_cell_angle_gamma 89.38250
 
_symmetry_space_group_name_Hall 'P 1'
_symmetry_space_group_name_H-M  'P 1'
 
loop_
_symmetry_equiv_pos_as_xyz
 'x,y,z' 
 
loop_
_atom_site_label
_atom_site_type_symbol
_atom_site_fract_x
_atom_site_fract_y
_atom_site_fract_z
_atom_site_charge
C          C       0.47871   0.52308   0.24389   0.0000000000
C          C       0.52136   0.52277   0.24341   0.0000000000
C          C       0.54161   0.54583   0.25498   0.0000000000
C          C       0.52027   0.56786   0.26609   0.0000000000
C          C       0.47991   0.56813   0.26803   0.0000000000
C          C       0.45852   0.54640   0.25818   0.0000000000
O          O       0.46384   0.59180   0.28269   0.0000000000
B          B       0.50014   0.60641   0.28942   0.0000000000
O          O       0.53640   0.59131   0.27920   0.0000000000
C          C       0.45753   0.50040   0.23145   0.0000000000
C          C       0.47880   0.47717   0.22717   0.0000000000
C          C       0.41523   0.50009   0.22183   0.0000000000
C          C       0.39549   0.47775   0.21185   0.0000000000
C          C       0.41561   0.45576   0.20928   0.0000000000
C          C       0.45665   0.45481   0.21574   0.0000000000
O          O       0.39088   0.43547   0.19682   0.0000000000
B          B       0.35216   0.44798   0.19218   0.0000000000
O          O       0.35472   0.47501   0.20144   0.0000000000
C          C       0.54246   0.49975   0.23438   0.0000000000
C          C       0.52110   0.47684   0.23147   0.0000000000
C          C       0.54318   0.45411   0.23189   0.0000000000
C          C       0.58425   0.45441   0.22957   0.0000000000
C          C       0.60446   0.47610   0.22695   0.0000000000
C          C       0.58479   0.49877   0.22916   0.0000000000
O          O       0.64525   0.47270   0.22335   0.0000000000
B          B       0.64772   0.44561   0.22428   0.0000000000
O          O       0.60892   0.43371   0.22828   0.0000000000
H          H       0.57332   0.54760   0.25807   0.0000000000
H          H       0.42682   0.54859   0.26461   0.0000000000
H          H       0.39668   0.51640   0.21914   0.0000000000
H          H       0.46968   0.43657   0.20932   0.0000000000
H          H       0.53009   0.43605   0.23492   0.0000000000
H          H       0.60345   0.51478   0.22571   0.0000000000
C          C       0.47909   0.80069   0.40026   0.0000000000
C          C       0.52173   0.80042   0.39663   0.0000000000
C          C       0.54192   0.77708   0.38312   0.0000000000
C          C       0.52054   0.75535   0.37406   0.0000000000
C          C       0.48017   0.75562   0.37601   0.0000000000
C          C       0.45883   0.77764   0.38792   0.0000000000
O          O       0.46404   0.73217   0.36290   0.0000000000
B          B       0.50030   0.71707   0.35267   0.0000000000
O          O       0.53660   0.73167   0.35941   0.0000000000
C          C       0.45798   0.82366   0.41473   0.0000000000
C          C       0.47927   0.84659   0.41697   0.0000000000
C          C       0.41572   0.82455   0.42843   0.0000000000
C          C       0.39603   0.84715   0.44029   0.0000000000
C          C       0.41616   0.86887   0.44093   0.0000000000
C          C       0.45718   0.86926   0.43051   0.0000000000
O          O       0.39150   0.88950   0.45577   0.0000000000
B          B       0.35280   0.87752   0.46414   0.0000000000
O          O       0.35531   0.85045   0.45464   0.0000000000
C          C       0.54288   0.82315   0.40363   0.0000000000
C          C       0.52154   0.84635   0.40859   0.0000000000
C          C       0.54362   0.86878   0.40605   0.0000000000
C          C       0.58469   0.86792   0.40442   0.0000000000
C          C       0.60490   0.84595   0.40509   0.0000000000
C          C       0.58522   0.82356   0.40477   0.0000000000
O          O       0.64570   0.84880   0.40476   0.0000000000
B          B       0.64817   0.87585   0.40359   0.0000000000
O          O       0.60938   0.88828   0.40333   0.0000000000
H          H       0.57361   0.77488   0.37698   0.0000000000
H          H       0.42712   0.77589   0.38454   0.0000000000
H          H       0.39718   0.80848   0.43289   0.0000000000
H          H       0.47023   0.88732   0.43569   0.0000000000
H          H       0.53053   0.88702   0.40427   0.0000000000
H          H       0.60388   0.80729   0.40643   0.0000000000
C          C       0.02516   0.29685   0.20402   0.0000000000
C          C       0.98254   0.29716   0.21129   0.0000000000
C          C       0.96239   0.27412   0.22849   0.0000000000
C          C       0.98381   0.25211   0.23757   0.0000000000
C          C       0.02416   0.25183   0.23217   0.0000000000
C          C       0.04546   0.27355   0.21660   0.0000000000
O          O       0.04033   0.22818   0.24590   0.0000000000
B          B       0.00411   0.21359   0.26049   0.0000000000
O          O       0.96780   0.22868   0.25560   0.0000000000
C          C       0.04622   0.31951   0.18582   0.0000000000
C          C       0.02493   0.34273   0.18344   0.0000000000
C          C       0.08842   0.31981   0.16845   0.0000000000
C          C       0.10808   0.34213   0.15301   0.0000000000
C          C       0.08794   0.36412   0.15224   0.0000000000
C          C       0.04697   0.36508   0.16609   0.0000000000
O          O       0.11255   0.38439   0.13356   0.0000000000
B          B       0.15121   0.37187   0.12292   0.0000000000
O          O       0.14874   0.34485   0.13492   0.0000000000
C          C       0.96137   0.32017   0.20417   0.0000000000
C          C       0.98269   0.34307   0.19542   0.0000000000
C          C       0.96062   0.36580   0.19793   0.0000000000
C          C       0.91957   0.36551   0.20313   0.0000000000
C          C       0.89936   0.34381   0.20603   0.0000000000
C          C       0.91903   0.32115   0.20658   0.0000000000
O          O       0.85856   0.34722   0.20958   0.0000000000
B          B       0.85610   0.37431   0.20866   0.0000000000
O          O       0.89489   0.38621   0.20458   0.0000000000
H          H       0.93073   0.27236   0.23751   0.0000000000
H          H       0.07718   0.27137   0.21743   0.0000000000
H          H       0.10695   0.30349   0.16377   0.0000000000
H          H       0.03390   0.38331   0.16050   0.0000000000
H          H       0.97372   0.38387   0.19705   0.0000000000
H          H       0.90037   0.30514   0.20788   0.0000000000
C          C       0.02569   0.01946   0.38752   0.0000000000
C          C       0.98305   0.01973   0.38436   0.0000000000
C          C       0.96285   0.04305   0.36910   0.0000000000
C          C       0.98424   0.06477   0.35796   0.0000000000
C          C       0.02460   0.06450   0.35947   0.0000000000
C          C       0.04594   0.04249   0.37300   0.0000000000
O          O       0.04073   0.08793   0.34419   0.0000000000
B          B       0.00446   0.10301   0.33309   0.0000000000
O          O       0.96817   0.08842   0.34147   0.0000000000
C          C       0.04681   0.99651   0.40370   0.0000000000
C          C       0.02552   0.97358   0.40813   0.0000000000
C          C       0.08907   0.99564   0.41699   0.0000000000
C          C       0.10877   0.97306   0.43055   0.0000000000
C          C       0.08863   0.95134   0.43326   0.0000000000
C          C       0.04762   0.95094   0.42334   0.0000000000
O          O       0.11330   0.93073   0.44957   0.0000000000
B          B       0.15200   0.94272   0.45648   0.0000000000
O          O       0.14949   0.96977   0.44471   0.0000000000
C          C       0.96190   0.99701   0.39352   0.0000000000
C          C       0.98324   0.97382   0.40021   0.0000000000
C          C       0.96116   0.95139   0.39982   0.0000000000
C          C       0.92009   0.95225   0.39858   0.0000000000
C          C       0.89988   0.97422   0.39762   0.0000000000
C          C       0.91956   0.99661   0.39518   0.0000000000
O          O       0.85908   0.97137   0.39799   0.0000000000
B          B       0.85661   0.94431   0.39915   0.0000000000
O          O       0.89540   0.93188   0.39949   0.0000000000
H          H       0.93116   0.04524   0.36312   0.0000000000
H          H       0.07766   0.04424   0.36911   0.0000000000
H          H       0.10762   0.01171   0.41989   0.0000000000
H          H       0.03456   0.93288   0.43020   0.0000000000
H          H       0.97425   0.93315   0.39944   0.0000000000
H          H       0.90091   0.01288   0.39566   0.0000000000
C          C       0.50009   0.69011   0.33739   0.0000000000
C          C       0.46046   0.67623   0.33121   0.0000000000
C          C       0.53922   0.64733   0.31115   0.0000000000
N          N       0.58026   0.63569   0.30263   0.0000000000
S          S       0.61322   0.66096   0.31560   0.0000000000
N          N       0.58033   0.68669   0.33176   0.0000000000
H          H       0.43121   0.68699   0.33858   0.0000000000
C          C       0.53926   0.67561   0.32726   0.0000000000
C          C       0.46042   0.64778   0.31491   0.0000000000
C          C       0.50002   0.63336   0.30481   0.0000000000
H          H       0.43116   0.63742   0.31035   0.0000000000
C          C       0.81808   0.38826   0.21150   0.0000000000
C          C       0.68573   0.43166   0.22151   0.0000000000
S          S       0.81303   0.42181   0.21047   0.0000000000
S          S       0.69079   0.39811   0.22257   0.0000000000
C          C       0.75995   0.42296   0.21529   0.0000000000
C          C       0.74387   0.39696   0.21788   0.0000000000
C          C       0.77611   0.37634   0.21580   0.0000000000
C          C       0.72771   0.44358   0.21724   0.0000000000
H          H       0.77013   0.35559   0.21719   0.0000000000
H          H       0.73369   0.46433   0.21577   0.0000000000
C          C       0.18918   0.38527   0.13572   0.0000000000
C          C       0.31420   0.43457   0.17944   0.0000000000
S          S       0.23811   0.37086   0.14197   0.0000000000
S          S       0.26527   0.44898   0.17322   0.0000000000
C          C       0.26575   0.39894   0.15726   0.0000000000
C          C       0.23763   0.42091   0.15807   0.0000000000
C          C       0.19327   0.41403   0.14589   0.0000000000
C          C       0.31011   0.40582   0.16931   0.0000000000
H          H       0.16747   0.42786   0.14453   0.0000000000
H          H       0.33591   0.39199   0.17058   0.0000000000
C          C       0.81858   0.93088   0.39997   0.0000000000
C          C       0.68620   0.88928   0.40271   0.0000000000
S          S       0.81351   0.89740   0.40149   0.0000000000
S          S       0.69127   0.92276   0.40115   0.0000000000
C          C       0.76043   0.89697   0.40179   0.0000000000
C          C       0.74435   0.92319   0.40074   0.0000000000
C          C       0.77661   0.94337   0.39970   0.0000000000
C          C       0.72817   0.87679   0.40293   0.0000000000
H          H       0.77063   0.96420   0.39889   0.0000000000
H          H       0.73415   0.85596   0.40383   0.0000000000
C          C       0.19010   0.94244   0.53626   0.0000000000
C          C       0.31490   0.89144   0.48052   0.0000000000
S          S       0.23900   0.95618   0.52531   0.0000000000
S          S       0.26600   0.87770   0.49145   0.0000000000
C          C       0.26656   0.92773   0.50737   0.0000000000
C          C       0.23844   0.90615   0.50926   0.0000000000
C          C       0.19413   0.91363   0.52570   0.0000000000
C          C       0.31087   0.92025   0.49105   0.0000000000
H          H       0.16834   0.90015   0.52955   0.0000000000
H          H       0.33666   0.93373   0.48729   0.0000000000
C          C       0.00437   0.13219   0.31393   0.0000000000
C          C       0.04025   0.14512   0.30048   0.0000000000
C          C       0.96833   0.17148   0.29310   0.0000000000
H          H       0.06837   0.13517   0.30313   0.0000000000
C          C       0.96841   0.14562   0.31007   0.0000000000
C          C       0.04017   0.17098   0.28350   0.0000000000
H          H       0.94036   0.13605   0.32024   0.0000000000
C          C       0.00421   0.18441   0.27964   0.0000000000
H          H       0.06822   0.18055   0.27333   0.0000000000
H          H       0.94021   0.18144   0.29044   0.0000000000
C          C       0.47871   0.52308   0.74389   0.0000000000
C          C       0.52136   0.52277   0.74341   0.0000000000
C          C       0.54161   0.54583   0.75497   0.0000000000
C          C       0.52027   0.56786   0.76609   0.0000000000
C          C       0.47991   0.56813   0.76803   0.0000000000
C          C       0.45852   0.54640   0.75818   0.0000000000
O          O       0.46384   0.59180   0.78268   0.0000000000
B          B       0.50014   0.60641   0.78942   0.0000000000
O          O       0.53640   0.59131   0.77919   0.0000000000
C          C       0.45753   0.50040   0.73145   0.0000000000
C          C       0.47880   0.47717   0.72716   0.0000000000
C          C       0.41523   0.50009   0.72183   0.0000000000
C          C       0.39549   0.47775   0.71185   0.0000000000
C          C       0.41561   0.45576   0.70929   0.0000000000
C          C       0.45665   0.45481   0.71574   0.0000000000
O          O       0.39088   0.43547   0.69682   0.0000000000
B          B       0.35216   0.44798   0.69217   0.0000000000
O          O       0.35472   0.47501   0.70143   0.0000000000
C          C       0.54246   0.49975   0.73438   0.0000000000
C          C       0.52110   0.47684   0.73147   0.0000000000
C          C       0.54318   0.45411   0.73189   0.0000000000
C          C       0.58425   0.45441   0.72957   0.0000000000
C          C       0.60446   0.47610   0.72695   0.0000000000
C          C       0.58479   0.49877   0.72916   0.0000000000
O          O       0.64525   0.47270   0.72335   0.0000000000
B          B       0.64772   0.44561   0.72428   0.0000000000
O          O       0.60892   0.43371   0.72828   0.0000000000
H          H       0.57332   0.54760   0.75807   0.0000000000
H          H       0.42682   0.54859   0.76461   0.0000000000
H          H       0.39668   0.51640   0.71914   0.0000000000
H          H       0.46968   0.43657   0.70932   0.0000000000
H          H       0.53009   0.43605   0.73492   0.0000000000
H          H       0.60345   0.51478   0.72571   0.0000000000
C          C       0.47909   0.80069   0.90026   0.0000000000
C          C       0.52173   0.80042   0.89663   0.0000000000
C          C       0.54192   0.77708   0.88313   0.0000000000
C          C       0.52054   0.75535   0.87406   0.0000000000
C          C       0.48017   0.75562   0.87601   0.0000000000
C          C       0.45883   0.77764   0.88792   0.0000000000
O          O       0.46404   0.73217   0.86290   0.0000000000
B          B       0.50030   0.71707   0.85267   0.0000000000
O          O       0.53660   0.73167   0.85941   0.0000000000
C          C       0.45798   0.82366   0.91473   0.0000000000
C          C       0.47927   0.84659   0.91697   0.0000000000
C          C       0.41572   0.82455   0.92843   0.0000000000
C          C       0.39603   0.84715   0.94029   0.0000000000
C          C       0.41616   0.86887   0.94092   0.0000000000
C          C       0.45718   0.86926   0.93051   0.0000000000
O          O       0.39150   0.88950   0.95577   0.0000000000
B          B       0.35280   0.87752   0.96414   0.0000000000
O          O       0.35531   0.85045   0.95464   0.0000000000
C          C       0.54288   0.82315   0.90363   0.0000000000
C          C       0.52154   0.84635   0.90859   0.0000000000
C          C       0.54362   0.86878   0.90605   0.0000000000
C          C       0.58469   0.86792   0.90441   0.0000000000
C          C       0.60490   0.84595   0.90509   0.0000000000
C          C       0.58522   0.82356   0.90477   0.0000000000
O          O       0.64570   0.84880   0.90476   0.0000000000
B          B       0.64817   0.87585   0.90360   0.0000000000
O          O       0.60938   0.88828   0.90333   0.0000000000
H          H       0.57361   0.77488   0.87697   0.0000000000
H          H       0.42712   0.77589   0.88454   0.0000000000
H          H       0.39718   0.80848   0.93290   0.0000000000
H          H       0.47023   0.88732   0.93569   0.0000000000
H          H       0.53053   0.88702   0.90428   0.0000000000
H          H       0.60388   0.80729   0.90643   0.0000000000
C          C       0.02516   0.29685   0.70402   0.0000000000
C          C       0.98254   0.29716   0.71129   0.0000000000
C          C       0.96239   0.27412   0.72849   0.0000000000
C          C       0.98381   0.25211   0.73757   0.0000000000
C          C       0.02416   0.25183   0.73217   0.0000000000
C          C       0.04546   0.27355   0.71659   0.0000000000
O          O       0.04033   0.22818   0.74590   0.0000000000
B          B       0.00411   0.21359   0.76049   0.0000000000
O          O       0.96780   0.22868   0.75560   0.0000000000
C          C       0.04622   0.31951   0.68581   0.0000000000
C          C       0.02493   0.34273   0.68344   0.0000000000
C          C       0.08842   0.31981   0.66846   0.0000000000
C          C       0.10808   0.34213   0.65300   0.0000000000
C          C       0.08794   0.36412   0.65224   0.0000000000
C          C       0.04697   0.36508   0.66609   0.0000000000
O          O       0.11255   0.38439   0.63356   0.0000000000
B          B       0.15121   0.37187   0.62292   0.0000000000
O          O       0.14874   0.34485   0.63492   0.0000000000
C          C       0.96137   0.32017   0.70417   0.0000000000
C          C       0.98269   0.34307   0.69542   0.0000000000
C          C       0.96062   0.36580   0.69793   0.0000000000
C          C       0.91957   0.36551   0.70313   0.0000000000
C          C       0.89936   0.34381   0.70603   0.0000000000
C          C       0.91903   0.32115   0.70658   0.0000000000
O          O       0.85856   0.34722   0.70958   0.0000000000
B          B       0.85610   0.37431   0.70866   0.0000000000
O          O       0.89489   0.38621   0.70458   0.0000000000
H          H       0.93073   0.27236   0.73751   0.0000000000
H          H       0.07718   0.27137   0.71743   0.0000000000
H          H       0.10695   0.30349   0.66377   0.0000000000
H          H       0.03390   0.38331   0.66050   0.0000000000
H          H       0.97372   0.38387   0.69705   0.0000000000
H          H       0.90037   0.30514   0.70788   0.0000000000
C          C       0.02569   0.01946   0.88752   0.0000000000
C          C       0.98305   0.01973   0.88436   0.0000000000
C          C       0.96285   0.04305   0.86910   0.0000000000
C          C       0.98424   0.06477   0.85796   0.0000000000
C          C       0.02460   0.06450   0.85947   0.0000000000
C          C       0.04594   0.04249   0.87299   0.0000000000
O          O       0.04073   0.08793   0.84419   0.0000000000
B          B       0.00446   0.10301   0.83308   0.0000000000
O          O       0.96817   0.08842   0.84148   0.0000000000
C          C       0.04681   0.99651   0.90369   0.0000000000
C          C       0.02552   0.97358   0.90813   0.0000000000
C          C       0.08907   0.99564   0.91699   0.0000000000
C          C       0.10877   0.97306   0.93055   0.0000000000
C          C       0.08863   0.95134   0.93325   0.0000000000
C          C       0.04762   0.95094   0.92334   0.0000000000
O          O       0.11330   0.93073   0.94956   0.0000000000
B          B       0.15200   0.94272   0.95648   0.0000000000
O          O       0.14949   0.96977   0.94471   0.0000000000
C          C       0.96190   0.99701   0.89351   0.0000000000
C          C       0.98324   0.97382   0.90021   0.0000000000
C          C       0.96116   0.95139   0.89982   0.0000000000
C          C       0.92009   0.95225   0.89858   0.0000000000
C          C       0.89988   0.97422   0.89762   0.0000000000
C          C       0.91956   0.99661   0.89518   0.0000000000
O          O       0.85908   0.97137   0.89799   0.0000000000
B          B       0.85661   0.94431   0.89915   0.0000000000
O          O       0.89540   0.93188   0.89950   0.0000000000
H          H       0.93116   0.04524   0.86312   0.0000000000
H          H       0.07766   0.04424   0.86911   0.0000000000
H          H       0.10762   0.01171   0.91989   0.0000000000
H          H       0.03456   0.93288   0.93020   0.0000000000
H          H       0.97425   0.93315   0.89944   0.0000000000
H          H       0.90091   0.01288   0.89567   0.0000000000
C          C       0.50009   0.69011   0.83739   0.0000000000
C          C       0.46046   0.67623   0.83121   0.0000000000
C          C       0.53922   0.64733   0.81115   0.0000000000
N          N       0.58026   0.63569   0.80263   0.0000000000
S          S       0.61322   0.66096   0.81560   0.0000000000
N          N       0.58033   0.68669   0.83176   0.0000000000
H          H       0.43121   0.68699   0.83858   0.0000000000
C          C       0.53926   0.67561   0.82726   0.0000000000
C          C       0.46042   0.64778   0.81491   0.0000000000
C          C       0.50002   0.63336   0.80481   0.0000000000
H          H       0.43116   0.63742   0.81035   0.0000000000
C          C       0.81808   0.38826   0.71151   0.0000000000
C          C       0.68573   0.43166   0.72150   0.0000000000
S          S       0.81303   0.42181   0.71047   0.0000000000
S          S       0.69079   0.39811   0.72257   0.0000000000
C          C       0.75995   0.42296   0.71529   0.0000000000
C          C       0.74387   0.39696   0.71788   0.0000000000
C          C       0.77611   0.37634   0.71581   0.0000000000
C          C       0.72771   0.44358   0.71724   0.0000000000
H          H       0.77013   0.35559   0.71720   0.0000000000
H          H       0.73369   0.46433   0.71577   0.0000000000
C          C       0.18918   0.38527   0.63572   0.0000000000
C          C       0.31420   0.43457   0.67944   0.0000000000
S          S       0.23811   0.37086   0.64197   0.0000000000
S          S       0.26527   0.44898   0.67323   0.0000000000
C          C       0.26575   0.39894   0.65726   0.0000000000
C          C       0.23763   0.42091   0.65807   0.0000000000
C          C       0.19327   0.41403   0.64589   0.0000000000
C          C       0.31011   0.40582   0.66931   0.0000000000
H          H       0.16747   0.42786   0.64453   0.0000000000
H          H       0.33591   0.39199   0.67058   0.0000000000
C          C       0.81858   0.93088   0.89997   0.0000000000
C          C       0.68620   0.88928   0.90271   0.0000000000
S          S       0.81351   0.89740   0.90149   0.0000000000
S          S       0.69127   0.92276   0.90115   0.0000000000
C          C       0.76043   0.89697   0.90178   0.0000000000
C          C       0.74435   0.92319   0.90074   0.0000000000
C          C       0.77661   0.94337   0.89970   0.0000000000
C          C       0.72817   0.87679   0.90294   0.0000000000
H          H       0.77063   0.96420   0.89889   0.0000000000
H          H       0.73415   0.85596   0.90383   0.0000000000
C          C       0.19010   0.94244   1.03626   0.0000000000
C          C       0.31490   0.89144   0.98052   0.0000000000
S          S       0.23900   0.95618   1.02531   0.0000000000
S          S       0.26600   0.87770   0.99145   0.0000000000
C          C       0.26656   0.92773   1.00737   0.0000000000
C          C       0.23844   0.90615   1.00927   0.0000000000
C          C       0.19413   0.91363   1.02570   0.0000000000
C          C       0.31087   0.92025   0.99105   0.0000000000
H          H       0.16834   0.90015   1.02955   0.0000000000
H          H       0.33666   0.93373   0.98728   0.0000000000
C          C       0.00437   0.13219   0.81393   0.0000000000
C          C       0.04025   0.14512   0.80048   0.0000000000
C          C       0.96833   0.17148   0.79310   0.0000000000
H          H       0.06837   0.13517   0.80314   0.0000000000
C          C       0.96841   0.14562   0.81007   0.0000000000
C          C       0.04017   0.17098   0.78350   0.0000000000
H          H       0.94036   0.13605   0.82024   0.0000000000
C          C       0.00421   0.18441   0.77964   0.0000000000
H          H       0.06822   0.18055   0.77333   0.0000000000
H          H       0.94021   0.18144   0.79044   0.0000000000
