data_crystal

_cell_length_a    37.49600
_cell_length_b    56.43000
_cell_length_c    7.06680
_cell_angle_alpha 90.00000
_cell_angle_beta  90.00000
_cell_angle_gamma 90.00000

_space_group_name_Hall 'P 1'
_space_group_name_H-M_alt  'P 1'

loop_
_symmetry_equiv_pos_as_xyz
'x,y,z' 

loop_
_atom_site_label
_atom_site_type_symbol
_atom_site_fract_x
_atom_site_fract_y
_atom_site_fract_z
C          C       0.98052   0.63261   0.25000 
C          C       0.48063   0.13214   0.25000 
C          C       0.01894   0.36766   0.25000 
C          C       0.51905   0.86796   0.25000 
C          C       0.98052   0.36739   0.25000 
C          C       0.48063   0.86786   0.25000 
C          C       0.01894   0.63234   0.25000 
C          C       0.51905   0.13204   0.25000 
C          C       0.96210   0.61041   0.25000 
C          C       0.46238   0.10986   0.25000 
C          C       0.03670   0.39014   0.25000 
C          C       0.53702   0.89034   0.25000 
C          C       0.96210   0.38959   0.25000 
C          C       0.46238   0.89014   0.25000 
C          C       0.03670   0.60986   0.25000 
C          C       0.53702   0.10966   0.25000 
C          C       0.98067   0.58908   0.25000 
C          C       0.48113   0.08856   0.25000 
C          C       0.01749   0.41128   0.25000 
C          C       0.51801   0.91153   0.25000 
C          C       0.98067   0.41092   0.25000 
C          C       0.48113   0.91144   0.25000 
C          C       0.01749   0.58872   0.25000 
C          C       0.51801   0.08847   0.25000 
H          H       0.06353   0.60772   0.25000 
H          H       0.56389   0.10767   0.25000 
H          H       0.93520   0.39145   0.25000 
H          H       0.43549   0.89197   0.25000 
H          H       0.06353   0.39228   0.25000 
H          H       0.56389   0.89233   0.25000 
H          H       0.93520   0.60855   0.25000 
H          H       0.43549   0.10803   0.25000 
H          H       0.09213   0.64006   0.25000 
H          H       0.59228   0.14001   0.25000 
H          H       0.90750   0.35888   0.25000 
H          H       0.40752   0.85946   0.25000 
H          H       0.09213   0.35994   0.25000 
H          H       0.59228   0.85999   0.25000 
H          H       0.90750   0.64112   0.25000 
H          H       0.40752   0.14054   0.25000 
H          H       0.02888   0.71433   0.25000 
H          H       0.52858   0.21408   0.25000 
H          H       0.97253   0.28532   0.25000 
H          H       0.47221   0.78575   0.25000 
H          H       0.02888   0.28567   0.25000 
H          H       0.52858   0.78592   0.25000 
H          H       0.97253   0.71468   0.25000 
H          H       0.47221   0.21425   0.25000 
C          C       0.99799   0.47460   0.25000 
C          C       0.49932   0.97482   0.25000 
C          C       0.99799   0.52540   0.25000 
C          C       0.49932   0.02518   0.25000 
C          C       0.96587   0.48764   0.25000 
C          C       0.46685   0.98753   0.25000 
C          C       0.03039   0.51251   0.25000 
C          C       0.53178   0.01247   0.25000 
C          C       0.96587   0.51236   0.25000 
C          C       0.46685   0.01247   0.25000 
C          C       0.03039   0.48749   0.25000 
C          C       0.53178   0.98753   0.25000 
H          H       0.44298   0.97864   0.25000 
H          H       0.05423   0.52134   0.25000 
H          H       0.55566   0.02134   0.25000 
H          H       0.44298   0.02136   0.25000 
H          H       0.05423   0.47866   0.25000 
H          H       0.55566   0.97866   0.25000 
C          C       0.33235   0.78104   0.25000 
C          C       0.83262   0.28041   0.25000 
C          C       0.66845   0.21801   0.25000 
C          C       0.16855   0.71818   0.25000 
C          C       0.33235   0.21896   0.25000 
C          C       0.83262   0.71959   0.25000 
C          C       0.66845   0.78199   0.25000 
C          C       0.16855   0.28182   0.25000 
C          C       0.33211   0.75602   0.25000 
C          C       0.83225   0.25539   0.25000 
C          C       0.66886   0.24303   0.25000 
C          C       0.16882   0.74320   0.25000 
C          C       0.33211   0.24398   0.25000 
C          C       0.83225   0.74461   0.25000 
C          C       0.66886   0.75697   0.25000 
C          C       0.16882   0.25680   0.25000 
C          C       0.26684   0.78107   0.25000 
C          C       0.76713   0.28063   0.25000 
C          C       0.73396   0.21778   0.25000 
C          C       0.23405   0.71811   0.25000 
C          C       0.26684   0.21893   0.25000 
C          C       0.76713   0.71937   0.25000 
C          C       0.73396   0.78223   0.25000 
C          C       0.23405   0.28189   0.25000 
H          H       0.35584   0.74695   0.25000 
H          H       0.85596   0.24631   0.25000 
H          H       0.64520   0.25218   0.25000 
H          H       0.14508   0.75225   0.25000 
H          H       0.35584   0.25305   0.25000 
H          H       0.85596   0.75369   0.25000 
H          H       0.64520   0.74782   0.25000 
H          H       0.14508   0.24775   0.25000 
C          C       0.29959   0.79339   0.25000 
C          C       0.79995   0.29286   0.25000 
C          C       0.70112   0.20555   0.25000 
C          C       0.20129   0.70580   0.25000 
C          C       0.29959   0.20661   0.25000 
C          C       0.79995   0.70714   0.25000 
C          C       0.70112   0.79445   0.25000 
C          C       0.20129   0.29420   0.25000 
C          C       0.29969   0.74331   0.25000 
C          C       0.79975   0.24278   0.25000 
C          C       0.70137   0.25563   0.25000 
C          C       0.20124   0.75589   0.25000 
C          C       0.29969   0.25669   0.25000 
C          C       0.79975   0.75722   0.25000 
C          C       0.70137   0.74437   0.25000 
C          C       0.20124   0.24411   0.25000 
H          H       0.29961   0.81158   0.25000 
H          H       0.80010   0.31106   0.25000 
H          H       0.70096   0.18737   0.25000 
H          H       0.20120   0.68760   0.25000 
H          H       0.29961   0.18842   0.25000 
H          H       0.80010   0.68894   0.25000 
H          H       0.70096   0.81263   0.25000 
H          H       0.20120   0.31240   0.25000 
C          C       0.26687   0.75589   0.25000 
C          C       0.76701   0.25546   0.25000 
C          C       0.73410   0.24295   0.25000 
C          C       0.23404   0.74329   0.25000 
C          C       0.26687   0.24411   0.25000 
C          C       0.76701   0.74454   0.25000 
C          C       0.73410   0.75705   0.25000 
C          C       0.23404   0.25671   0.25000 
C          C       0.26685   0.70585   0.25000 
C          C       0.76667   0.20541   0.25000 
C          C       0.73442   0.29300   0.25000 
C          C       0.23406   0.79335   0.25000 
C          C       0.26685   0.29415   0.25000 
C          C       0.76667   0.79459   0.25000 
C          C       0.73442   0.70700   0.25000 
C          C       0.23406   0.20665   0.25000 
C          C       0.20162   0.78090   0.25000 
C          C       0.70190   0.28063   0.25000 
C          C       0.79920   0.21777   0.25000 
C          C       0.29929   0.71831   0.25000 
C          C       0.20162   0.21910   0.25000 
C          C       0.70190   0.71937   0.25000 
C          C       0.79920   0.78223   0.25000 
C          C       0.29929   0.28169   0.25000 
H          H       0.26741   0.68772   0.25000 
H          H       0.76712   0.18728   0.25000 
H          H       0.73397   0.31113   0.25000 
H          H       0.23350   0.81148   0.25000 
H          H       0.26741   0.31228   0.25000 
H          H       0.76712   0.81272   0.25000 
H          H       0.73397   0.68887   0.25000 
H          H       0.23350   0.18852   0.25000 
H          H       0.17826   0.79028   0.25000 
H          H       0.67860   0.29008   0.25000 
H          H       0.82250   0.20833   0.25000 
H          H       0.32265   0.70892   0.25000 
H          H       0.17826   0.20972   0.25000 
H          H       0.67860   0.70992   0.25000 
H          H       0.82250   0.79167   0.25000 
H          H       0.32265   0.29108   0.25000 
N          N       0.93264   0.47891   0.25000 
N          N       0.93264   0.52109   0.25000 
S          S       0.90083   0.50000   0.25000 
O          O       0.96727   0.56704   0.25000 
O          O       0.46798   0.06634   0.25000 
O          O       0.03001   0.43365   0.25000 
O          O       0.53092   0.93380   0.25000 
O          O       0.96727   0.43296   0.25000 
O          O       0.46798   0.93366   0.25000 
O          O       0.03001   0.56635   0.25000 
O          O       0.53092   0.06620   0.25000 
B          B       0.99821   0.55182   0.25000 
B          B       0.49938   0.05158   0.25000 
B          B       0.99821   0.44818   0.25000 
B          B       0.49938   0.94842   0.25000 
C          C       0.96172   0.65464   0.25000 
C          C       0.98119   0.67664   0.25000 
C          C       0.92358   0.65557   0.25000 
C          C       0.90559   0.67714   0.25000 
C          C       0.92424   0.69829   0.25000 
C          C       0.96138   0.69833   0.25000 
C          C       0.46171   0.15415   0.25000 
C          C       0.48107   0.17620   0.25000 
C          C       0.42356   0.15500   0.25000 
C          C       0.40546   0.17654   0.25000 
C          C       0.42403   0.19771   0.25000 
C          C       0.46116   0.19785   0.25000 
C          C       0.03828   0.34582   0.25000 
C          C       0.01933   0.32360   0.25000 
C          C       0.07645   0.34529   0.25000 
C          C       0.09497   0.32391   0.25000 
C          C       0.07676   0.30258   0.25000 
C          C       0.03965   0.30214   0.25000 
C          C       0.53826   0.84608   0.25000 
C          C       0.51920   0.82391   0.25000 
C          C       0.57643   0.84544   0.25000 
C          C       0.59482   0.82402   0.25000 
C          C       0.57653   0.80275   0.25000 
C          C       0.53940   0.80239   0.25000 
C          C       0.96172   0.34536   0.25000 
C          C       0.98119   0.32336   0.25000 
C          C       0.92358   0.34443   0.25000 
C          C       0.90559   0.32286   0.25000 
C          C       0.92424   0.30171   0.25000 
C          C       0.96138   0.30167   0.25000 
C          C       0.46171   0.84585   0.25000 
C          C       0.48107   0.82380   0.25000 
C          C       0.42356   0.84500   0.25000 
C          C       0.40546   0.82346   0.25000 
C          C       0.42403   0.80229   0.25000 
C          C       0.46116   0.80215   0.25000 
C          C       0.03828   0.65418   0.25000 
C          C       0.01933   0.67640   0.25000 
C          C       0.07645   0.65471   0.25000 
C          C       0.09497   0.67610   0.25000 
C          C       0.07676   0.69742   0.25000 
C          C       0.03965   0.69786   0.25000 
C          C       0.53826   0.15392   0.25000 
C          C       0.51920   0.17609   0.25000 
C          C       0.57643   0.15456   0.25000 
C          C       0.59482   0.17598   0.25000 
C          C       0.57653   0.19726   0.25000 
C          C       0.53940   0.19761   0.25000 
O          O       0.90199   0.71707   0.25000 
O          O       0.40165   0.21637   0.25000 
O          O       0.09936   0.28401   0.25000 
O          O       0.59915   0.78422   0.25000 
O          O       0.90199   0.28293   0.25000 
O          O       0.40165   0.78363   0.25000 
O          O       0.09936   0.71599   0.25000 
O          O       0.59915   0.21578   0.25000 
B          B       0.86704   0.70640   0.25000 
B          B       0.36671   0.20570   0.25000 
B          B       0.13409   0.29496   0.25000 
B          B       0.63394   0.79509   0.25000 
B          B       0.86704   0.29360   0.25000 
B          B       0.36671   0.79430   0.25000 
B          B       0.13409   0.70504   0.25000 
B          B       0.63394   0.20491   0.25000 
O          O       0.87014   0.68096   0.25000 
O          O       0.36997   0.18024   0.25000 
O          O       0.13053   0.32039   0.25000 
O          O       0.63036   0.82053   0.25000 
O          O       0.87014   0.31904   0.25000 
O          O       0.36997   0.81976   0.25000 
O          O       0.13053   0.67961   0.25000 
O          O       0.63036   0.17947   0.25000 
C          C       0.98052   0.63261   0.75001 
C          C       0.48063   0.13214   0.75001 
C          C       0.01894   0.36766   0.75001 
C          C       0.51905   0.86796   0.75001 
C          C       0.98052   0.36739   0.75001 
C          C       0.48063   0.86786   0.75001 
C          C       0.01894   0.63234   0.75001 
C          C       0.51905   0.13204   0.75001 
C          C       0.96210   0.61041   0.75001 
C          C       0.46238   0.10986   0.75001 
C          C       0.03670   0.39014   0.75001 
C          C       0.53702   0.89034   0.75001 
C          C       0.96210   0.38959   0.75001 
C          C       0.46238   0.89014   0.75001 
C          C       0.03670   0.60986   0.75001 
C          C       0.53702   0.10966   0.75001 
C          C       0.98067   0.58908   0.75001 
C          C       0.48113   0.08856   0.75001 
C          C       0.01749   0.41128   0.75001 
C          C       0.51801   0.91153   0.75001 
C          C       0.98067   0.41092   0.75001 
C          C       0.48113   0.91144   0.75001 
C          C       0.01749   0.58872   0.75001 
C          C       0.51801   0.08847   0.75001 
H          H       0.06353   0.60772   0.75001 
H          H       0.56389   0.10767   0.75001 
H          H       0.93520   0.39145   0.75001 
H          H       0.43549   0.89197   0.75001 
H          H       0.06353   0.39228   0.75001 
H          H       0.56389   0.89233   0.75001 
H          H       0.93520   0.60855   0.75001 
H          H       0.43549   0.10803   0.75001 
H          H       0.09213   0.64006   0.75001 
H          H       0.59228   0.14001   0.75001 
H          H       0.90750   0.35888   0.75001 
H          H       0.40752   0.85946   0.75001 
H          H       0.09213   0.35994   0.75001 
H          H       0.59228   0.85999   0.75001 
H          H       0.90750   0.64112   0.75001 
H          H       0.40752   0.14054   0.75001 
H          H       0.02888   0.71433   0.75001 
H          H       0.52858   0.21408   0.75001 
H          H       0.97253   0.28532   0.75001 
H          H       0.47221   0.78575   0.75001 
H          H       0.02888   0.28567   0.75001 
H          H       0.52858   0.78592   0.75001 
H          H       0.97253   0.71468   0.75001 
H          H       0.47221   0.21425   0.75001 
C          C       0.99799   0.47460   0.75001 
C          C       0.49932   0.97482   0.75001 
C          C       0.99799   0.52540   0.75001 
C          C       0.49932   0.02518   0.75001 
C          C       0.96587   0.48764   0.75001 
C          C       0.46685   0.98753   0.75001 
C          C       0.03039   0.51251   0.75001 
C          C       0.53178   0.01247   0.75001 
C          C       0.96587   0.51236   0.75001 
C          C       0.46685   0.01247   0.75001 
C          C       0.03039   0.48749   0.75001 
C          C       0.53178   0.98753   0.75001 
H          H       0.44298   0.97864   0.75001 
H          H       0.05423   0.52134   0.75001 
H          H       0.55566   0.02134   0.75001 
H          H       0.44298   0.02136   0.75001 
H          H       0.05423   0.47866   0.75001 
H          H       0.55566   0.97866   0.75001 
C          C       0.33235   0.78104   0.75001 
C          C       0.83262   0.28041   0.75001 
C          C       0.66845   0.21801   0.75001 
C          C       0.16855   0.71818   0.75001 
C          C       0.33235   0.21896   0.75001 
C          C       0.83262   0.71959   0.75001 
C          C       0.66845   0.78199   0.75001 
C          C       0.16855   0.28182   0.75001 
C          C       0.33211   0.75602   0.75001 
C          C       0.83225   0.25539   0.75001 
C          C       0.66886   0.24303   0.75001 
C          C       0.16882   0.74320   0.75001 
C          C       0.33211   0.24398   0.75001 
C          C       0.83225   0.74461   0.75001 
C          C       0.66886   0.75697   0.75001 
C          C       0.16882   0.25680   0.75001 
C          C       0.26684   0.78107   0.75001 
C          C       0.76713   0.28063   0.75001 
C          C       0.73396   0.21778   0.75001 
C          C       0.23405   0.71811   0.75001 
C          C       0.26684   0.21893   0.75001 
C          C       0.76713   0.71937   0.75001 
C          C       0.73396   0.78223   0.75001 
C          C       0.23405   0.28189   0.75001 
H          H       0.35584   0.74695   0.75001 
H          H       0.85596   0.24631   0.75001 
H          H       0.64520   0.25218   0.75001 
H          H       0.14508   0.75225   0.75001 
H          H       0.35584   0.25305   0.75001 
H          H       0.85596   0.75369   0.75001 
H          H       0.64520   0.74782   0.75001 
H          H       0.14508   0.24775   0.75001 
C          C       0.29959   0.79339   0.75001 
C          C       0.79995   0.29286   0.75001 
C          C       0.70112   0.20555   0.75001 
C          C       0.20129   0.70580   0.75001 
C          C       0.29959   0.20661   0.75001 
C          C       0.79995   0.70714   0.75001 
C          C       0.70112   0.79445   0.75001 
C          C       0.20129   0.29420   0.75001 
C          C       0.29969   0.74331   0.75001 
C          C       0.79975   0.24278   0.75001 
C          C       0.70137   0.25563   0.75001 
C          C       0.20124   0.75589   0.75001 
C          C       0.29969   0.25669   0.75001 
C          C       0.79975   0.75722   0.75001 
C          C       0.70137   0.74437   0.75001 
C          C       0.20124   0.24411   0.75001 
H          H       0.29961   0.81158   0.75001 
H          H       0.80010   0.31106   0.75001 
H          H       0.70096   0.18737   0.75001 
H          H       0.20120   0.68760   0.75001 
H          H       0.29961   0.18842   0.75001 
H          H       0.80010   0.68894   0.75001 
H          H       0.70096   0.81263   0.75001 
H          H       0.20120   0.31240   0.75001 
C          C       0.26687   0.75589   0.75001 
C          C       0.76701   0.25546   0.75001 
C          C       0.73410   0.24295   0.75001 
C          C       0.23404   0.74329   0.75001 
C          C       0.26687   0.24411   0.75001 
C          C       0.76701   0.74454   0.75001 
C          C       0.73410   0.75705   0.75001 
C          C       0.23404   0.25671   0.75001 
C          C       0.26685   0.70585   0.75001 
C          C       0.76667   0.20541   0.75001 
C          C       0.73442   0.29300   0.75001 
C          C       0.23406   0.79335   0.75001 
C          C       0.26685   0.29415   0.75001 
C          C       0.76667   0.79459   0.75001 
C          C       0.73442   0.70700   0.75001 
C          C       0.23406   0.20665   0.75001 
C          C       0.20162   0.78090   0.75001 
C          C       0.70190   0.28063   0.75001 
C          C       0.79920   0.21777   0.75001 
C          C       0.29929   0.71831   0.75001 
C          C       0.20162   0.21910   0.75001 
C          C       0.70190   0.71937   0.75001 
C          C       0.79920   0.78223   0.75001 
C          C       0.29929   0.28169   0.75001 
H          H       0.26741   0.68772   0.75001 
H          H       0.76712   0.18728   0.75001 
H          H       0.73397   0.31113   0.75001 
H          H       0.23350   0.81148   0.75001 
H          H       0.26741   0.31228   0.75001 
H          H       0.76712   0.81272   0.75001 
H          H       0.73397   0.68887   0.75001 
H          H       0.23350   0.18852   0.75001 
H          H       0.17826   0.79028   0.75001 
H          H       0.67860   0.29008   0.75001 
H          H       0.82250   0.20833   0.75001 
H          H       0.32265   0.70892   0.75001 
H          H       0.17826   0.20972   0.75001 
H          H       0.67860   0.70992   0.75001 
H          H       0.82250   0.79167   0.75001 
H          H       0.32265   0.29108   0.75001 
N          N       0.93264   0.47891   0.75001 
N          N       0.93264   0.52109   0.75001 
S          S       0.90083   0.50000   0.75001 
O          O       0.96727   0.56704   0.75001 
O          O       0.46798   0.06634   0.75001 
O          O       0.03001   0.43365   0.75001 
O          O       0.53092   0.93380   0.75001 
O          O       0.96727   0.43296   0.75001 
O          O       0.46798   0.93366   0.75001 
O          O       0.03001   0.56635   0.75001 
O          O       0.53092   0.06620   0.75001 
B          B       0.99821   0.55182   0.75001 
B          B       0.49938   0.05158   0.75001 
B          B       0.99821   0.44818   0.75001 
B          B       0.49938   0.94842   0.75001 
C          C       0.96172   0.65464   0.75001 
C          C       0.98119   0.67664   0.75001 
C          C       0.92358   0.65557   0.75001 
C          C       0.90559   0.67714   0.75001 
C          C       0.92424   0.69829   0.75001 
C          C       0.96138   0.69833   0.75001 
C          C       0.46171   0.15415   0.75001 
C          C       0.48107   0.17620   0.75001 
C          C       0.42356   0.15500   0.75001 
C          C       0.40546   0.17654   0.75001 
C          C       0.42403   0.19771   0.75001 
C          C       0.46116   0.19785   0.75001 
C          C       0.03828   0.34582   0.75001 
C          C       0.01933   0.32360   0.75001 
C          C       0.07645   0.34529   0.75001 
C          C       0.09497   0.32391   0.75001 
C          C       0.07676   0.30258   0.75001 
C          C       0.03965   0.30214   0.75001 
C          C       0.53826   0.84608   0.75001 
C          C       0.51920   0.82391   0.75001 
C          C       0.57643   0.84544   0.75001 
C          C       0.59482   0.82402   0.75001 
C          C       0.57653   0.80275   0.75001 
C          C       0.53940   0.80239   0.75001 
C          C       0.96172   0.34536   0.75001 
C          C       0.98119   0.32336   0.75001 
C          C       0.92358   0.34443   0.75001 
C          C       0.90559   0.32286   0.75001 
C          C       0.92424   0.30171   0.75001 
C          C       0.96138   0.30167   0.75001 
C          C       0.46171   0.84585   0.75001 
C          C       0.48107   0.82380   0.75001 
C          C       0.42356   0.84500   0.75001 
C          C       0.40546   0.82346   0.75001 
C          C       0.42403   0.80229   0.75001 
C          C       0.46116   0.80215   0.75001 
C          C       0.03828   0.65418   0.75001 
C          C       0.01933   0.67640   0.75001 
C          C       0.07645   0.65471   0.75001 
C          C       0.09497   0.67610   0.75001 
C          C       0.07676   0.69742   0.75001 
C          C       0.03965   0.69786   0.75001 
C          C       0.53826   0.15392   0.75001 
C          C       0.51920   0.17609   0.75001 
C          C       0.57643   0.15456   0.75001 
C          C       0.59482   0.17598   0.75001 
C          C       0.57653   0.19726   0.75001 
C          C       0.53940   0.19761   0.75001 
O          O       0.90199   0.71707   0.75001 
O          O       0.40165   0.21637   0.75001 
O          O       0.09936   0.28401   0.75001 
O          O       0.59915   0.78422   0.75001 
O          O       0.90199   0.28293   0.75001 
O          O       0.40165   0.78363   0.75001 
O          O       0.09936   0.71599   0.75001 
O          O       0.59915   0.21578   0.75001 
B          B       0.86704   0.70640   0.75001 
B          B       0.36671   0.20570   0.75001 
B          B       0.13409   0.29496   0.75001 
B          B       0.63394   0.79509   0.75001 
B          B       0.86704   0.29360   0.75001 
B          B       0.36671   0.79430   0.75001 
B          B       0.13409   0.70504   0.75001 
B          B       0.63394   0.20491   0.75001 
O          O       0.87014   0.68096   0.75001 
O          O       0.36997   0.18024   0.75001 
O          O       0.13053   0.32039   0.75001 
O          O       0.63036   0.82053   0.75001 
O          O       0.87014   0.31904   0.75001 
O          O       0.36997   0.81976   0.75001 
O          O       0.13053   0.67961   0.75001 
O          O       0.63036   0.17947   0.75001 
