data_crystal

_cell_length_a    56.41460
_cell_length_b    37.46080
_cell_length_c    7.18040
_cell_angle_alpha 90.00000
_cell_angle_beta  90.00000
_cell_angle_gamma 90.00000

_space_group_name_Hall 'P 1'
_space_group_name_H-M_alt  'P 1'

loop_
_symmetry_equiv_pos_as_xyz
'x,y,z' 

loop_
_atom_site_label
_atom_site_type_symbol
_atom_site_fract_x
_atom_site_fract_y
_atom_site_fract_z
C          C       0.63215   0.01923   0.25000 
C          C       0.60981   0.03735   0.25000 
C          C       0.58856   0.01846   0.25000 
C          C       0.13215   0.51923   0.25000 
C          C       0.13215   0.48077   0.25000 
C          C       0.10981   0.46265   0.25000 
C          C       0.10981   0.53735   0.25000 
C          C       0.08856   0.48154   0.25000 
C          C       0.08856   0.51846   0.25000 
C          C       0.36785   0.98077   0.25000 
C          C       0.39019   0.96265   0.25000 
C          C       0.41144   0.98155   0.25000 
C          C       0.86785   0.48077   0.25000 
C          C       0.86785   0.51923   0.25000 
C          C       0.89019   0.53735   0.25000 
C          C       0.89019   0.46265   0.25000 
C          C       0.91144   0.51846   0.25000 
C          C       0.91144   0.48154   0.25000 
C          C       0.36785   0.01923   0.25000 
C          C       0.39019   0.03735   0.25000 
C          C       0.41144   0.01846   0.25000 
C          C       0.63215   0.98077   0.25000 
C          C       0.60981   0.96265   0.25000 
C          C       0.58856   0.98155   0.25000 
O          O       0.56631   0.03150   0.25000 
O          O       0.06631   0.53150   0.25000 
O          O       0.43369   0.96851   0.25000 
O          O       0.93369   0.46851   0.25000 
O          O       0.43369   0.03150   0.25000 
O          O       0.93369   0.53150   0.25000 
O          O       0.56631   0.96851   0.25000 
O          O       0.06631   0.46851   0.25000 
B          B       0.55160   0.00000   0.25000 
B          B       0.05160   0.50000   0.25000 
B          B       0.44840   0.00000   0.25000 
B          B       0.94840   0.50000   0.25000 
C          C       0.65410   0.03832   0.25000 
C          C       0.67622   0.01909   0.25000 
C          C       0.65485   0.07651   0.25000 
C          C       0.67634   0.09478   0.25000 
C          C       0.69756   0.07632   0.25000 
C          C       0.69781   0.03916   0.25000 
C          C       0.15410   0.53832   0.25000 
C          C       0.17622   0.51909   0.25000 
C          C       0.15485   0.57651   0.25000 
C          C       0.17634   0.59478   0.25000 
C          C       0.19756   0.57632   0.25000 
C          C       0.19780   0.53916   0.25000 
C          C       0.34590   0.96168   0.25000 
C          C       0.32378   0.98091   0.25000 
C          C       0.34515   0.92349   0.25000 
C          C       0.32366   0.90522   0.25000 
C          C       0.30244   0.92368   0.25000 
C          C       0.30220   0.96084   0.25000 
C          C       0.84590   0.46168   0.25000 
C          C       0.82378   0.48091   0.25000 
C          C       0.84515   0.42349   0.25000 
C          C       0.82366   0.40522   0.25000 
C          C       0.80244   0.42368   0.25000 
C          C       0.80220   0.46084   0.25000 
C          C       0.34590   0.03832   0.25000 
C          C       0.32378   0.01909   0.25000 
C          C       0.34515   0.07651   0.25000 
C          C       0.32366   0.09478   0.25000 
C          C       0.30244   0.07632   0.25000 
C          C       0.30220   0.03916   0.25000 
C          C       0.84590   0.53832   0.25000 
C          C       0.82378   0.51909   0.25000 
C          C       0.84515   0.57651   0.25000 
C          C       0.82366   0.59478   0.25000 
C          C       0.80244   0.57632   0.25000 
C          C       0.80220   0.53916   0.25000 
C          C       0.65410   0.96168   0.25000 
C          C       0.67622   0.98091   0.25000 
C          C       0.65485   0.92349   0.25000 
C          C       0.67634   0.90522   0.25000 
C          C       0.69756   0.92368   0.25000 
C          C       0.69781   0.96084   0.25000 
C          C       0.15410   0.46168   0.25000 
C          C       0.17622   0.48091   0.25000 
C          C       0.15485   0.42349   0.25000 
C          C       0.17634   0.40522   0.25000 
C          C       0.19756   0.42368   0.25000 
C          C       0.19780   0.46084   0.25000 
O          O       0.71619   0.09882   0.25000 
O          O       0.21619   0.59882   0.25000 
O          O       0.28381   0.90119   0.25000 
O          O       0.78381   0.40119   0.25000 
O          O       0.28381   0.09882   0.25000 
O          O       0.78381   0.59882   0.25000 
O          O       0.71619   0.90119   0.25000 
O          O       0.21619   0.40119   0.25000 
B          B       0.70542   0.13372   0.25000 
B          B       0.20542   0.63372   0.25000 
B          B       0.29458   0.86628   0.25000 
B          B       0.79458   0.36628   0.25000 
B          B       0.29458   0.13372   0.25000 
B          B       0.79458   0.63372   0.25000 
B          B       0.70542   0.86628   0.25000 
B          B       0.20542   0.36628   0.25000 
O          O       0.67996   0.13031   0.25000 
O          O       0.17996   0.63032   0.25000 
O          O       0.32004   0.86969   0.25000 
O          O       0.82004   0.36969   0.25000 
O          O       0.32004   0.13031   0.25000 
O          O       0.82004   0.63032   0.25000 
O          O       0.67996   0.86969   0.25000 
O          O       0.17996   0.36969   0.25000 
H          H       0.60921   0.93223   0.25000 
H          H       0.63765   0.90750   0.25000 
H          H       0.71560   0.97527   0.25000 
H          H       0.10921   0.43223   0.25000 
H          H       0.10921   0.56777   0.25000 
H          H       0.13765   0.59250   0.25000 
H          H       0.13765   0.40750   0.25000 
H          H       0.21560   0.52473   0.25000 
H          H       0.21560   0.47527   0.25000 
H          H       0.39079   0.06777   0.25000 
H          H       0.36235   0.09250   0.25000 
H          H       0.28440   0.02473   0.25000 
H          H       0.89079   0.56777   0.25000 
H          H       0.89079   0.43223   0.25000 
H          H       0.86235   0.40750   0.25000 
H          H       0.86235   0.59250   0.25000 
H          H       0.78440   0.47527   0.25000 
H          H       0.78440   0.52473   0.25000 
H          H       0.39079   0.93223   0.25000 
H          H       0.36235   0.90750   0.25000 
H          H       0.28440   0.97527   0.25000 
H          H       0.60921   0.06777   0.25000 
H          H       0.63765   0.09250   0.25000 
H          H       0.71560   0.02473   0.25000 
C          C       0.47481   0.00000   0.25000 
C          C       0.97481   0.50000   0.25000 
C          C       0.52519   0.00000   0.25000 
C          C       0.02519   0.50000   0.25000 
C          C       0.48752   0.03250   0.25000 
C          C       0.98753   0.53250   0.25000 
C          C       0.51248   0.96751   0.25000 
C          C       0.01248   0.46751   0.25000 
C          C       0.51248   0.03250   0.25000 
C          C       0.01248   0.53250   0.25000 
C          C       0.48752   0.96751   0.25000 
C          C       0.98753   0.46751   0.25000 
H          H       0.47758   0.05899   0.25000 
H          H       0.97758   0.55899   0.25000 
H          H       0.52242   0.94102   0.25000 
H          H       0.02242   0.44101   0.25000 
H          H       0.52242   0.05899   0.25000 
H          H       0.02242   0.55899   0.25000 
H          H       0.47758   0.94102   0.25000 
H          H       0.97758   0.44101   0.25000 
C          C       0.78137   0.66818   0.25000 
C          C       0.28137   0.16818   0.25000 
C          C       0.21863   0.33182   0.25000 
C          C       0.71863   0.83182   0.25000 
C          C       0.21863   0.66818   0.25000 
C          C       0.71863   0.16818   0.25000 
C          C       0.78137   0.33182   0.25000 
C          C       0.28137   0.83182   0.25000 
C          C       0.75630   0.66826   0.25000 
C          C       0.25630   0.16826   0.25000 
C          C       0.24370   0.33175   0.25000 
C          C       0.74370   0.83175   0.25000 
C          C       0.24370   0.66826   0.25000 
C          C       0.74370   0.16826   0.25000 
C          C       0.75630   0.33175   0.25000 
C          C       0.25630   0.83175   0.25000 
C          C       0.78164   0.73382   0.25000 
C          C       0.28164   0.23382   0.25000 
C          C       0.21836   0.26618   0.25000 
C          C       0.71836   0.76618   0.25000 
C          C       0.21836   0.73382   0.25000 
C          C       0.71836   0.23382   0.25000 
C          C       0.78164   0.26618   0.25000 
C          C       0.28164   0.76618   0.25000 
H          H       0.74616   0.64193   0.25000 
H          H       0.24616   0.14193   0.25000 
H          H       0.25384   0.35807   0.25000 
H          H       0.75384   0.85807   0.25000 
H          H       0.25384   0.64193   0.25000 
H          H       0.75384   0.14193   0.25000 
H          H       0.74616   0.35807   0.25000 
H          H       0.24616   0.85807   0.25000 
C          C       0.79386   0.70092   0.25000 
C          C       0.29386   0.20092   0.25000 
C          C       0.20614   0.29908   0.25000 
C          C       0.70614   0.79908   0.25000 
C          C       0.20614   0.70092   0.25000 
C          C       0.70614   0.20092   0.25000 
C          C       0.79386   0.29908   0.25000 
C          C       0.29386   0.79908   0.25000 
C          C       0.74349   0.70065   0.25000 
C          C       0.24349   0.20065   0.25000 
C          C       0.25651   0.29935   0.25000 
C          C       0.75651   0.79935   0.25000 
C          C       0.25651   0.70065   0.25000 
C          C       0.75651   0.20065   0.25000 
C          C       0.74349   0.29935   0.25000 
C          C       0.24349   0.79935   0.25000 
H          H       0.81407   0.70098   0.25000 
H          H       0.31407   0.20098   0.25000 
H          H       0.18593   0.29902   0.25000 
H          H       0.68593   0.79902   0.25000 
H          H       0.18593   0.70098   0.25000 
H          H       0.68593   0.20098   0.25000 
H          H       0.81407   0.29902   0.25000 
H          H       0.31407   0.79902   0.25000 
C          C       0.75634   0.73345   0.25000 
C          C       0.25634   0.23345   0.25000 
C          C       0.24366   0.26655   0.25000 
C          C       0.74366   0.76655   0.25000 
C          C       0.24366   0.73345   0.25000 
C          C       0.74366   0.23345   0.25000 
C          C       0.75634   0.26655   0.25000 
C          C       0.25634   0.76655   0.25000 
C          C       0.70581   0.73333   0.25000 
C          C       0.20581   0.23333   0.25000 
C          C       0.29419   0.26667   0.25000 
C          C       0.79419   0.76667   0.25000 
C          C       0.29419   0.73333   0.25000 
C          C       0.79419   0.23333   0.25000 
C          C       0.70581   0.26667   0.25000 
C          C       0.20581   0.76667   0.25000 
C          C       0.78168   0.79930   0.25000 
C          C       0.28168   0.29930   0.25000 
C          C       0.21832   0.20070   0.25000 
C          C       0.71832   0.70070   0.25000 
C          C       0.21832   0.79930   0.25000 
C          C       0.71832   0.29930   0.25000 
C          C       0.78168   0.20070   0.25000 
C          C       0.28168   0.70070   0.25000 
H          H       0.68561   0.73329   0.25000 
H          H       0.79180   0.82563   0.25000 
H          H       0.18561   0.23329   0.25000 
H          H       0.29180   0.32563   0.25000 
H          H       0.31439   0.26671   0.25000 
H          H       0.20820   0.17437   0.25000 
H          H       0.81439   0.76671   0.25000 
H          H       0.70820   0.67437   0.25000 
H          H       0.31439   0.73329   0.25000 
H          H       0.20820   0.82563   0.25000 
H          H       0.81439   0.23329   0.25000 
H          H       0.70820   0.32563   0.25000 
H          H       0.68561   0.26671   0.25000 
H          H       0.79180   0.17437   0.25000 
H          H       0.18561   0.76671   0.25000 
H          H       0.29180   0.67437   0.25000 
C          C       0.63215   0.01923   0.75000 
C          C       0.60981   0.03735   0.75000 
C          C       0.58856   0.01846   0.75000 
C          C       0.13215   0.51923   0.75000 
C          C       0.13215   0.48077   0.75000 
C          C       0.10981   0.46265   0.75000 
C          C       0.10981   0.53735   0.75000 
C          C       0.08856   0.48154   0.75000 
C          C       0.08856   0.51846   0.75000 
C          C       0.36785   0.98077   0.75000 
C          C       0.39019   0.96265   0.75000 
C          C       0.41144   0.98155   0.75000 
C          C       0.86785   0.48077   0.75000 
C          C       0.86785   0.51923   0.75000 
C          C       0.89019   0.53735   0.75000 
C          C       0.89019   0.46265   0.75000 
C          C       0.91144   0.51846   0.75000 
C          C       0.91144   0.48154   0.75000 
C          C       0.36785   0.01923   0.75000 
C          C       0.39019   0.03735   0.75000 
C          C       0.41144   0.01846   0.75000 
C          C       0.63215   0.98077   0.75000 
C          C       0.60981   0.96265   0.75000 
C          C       0.58856   0.98155   0.75000 
O          O       0.56631   0.03150   0.75000 
O          O       0.06631   0.53150   0.75000 
O          O       0.43369   0.96851   0.75000 
O          O       0.93369   0.46851   0.75000 
O          O       0.43369   0.03150   0.75000 
O          O       0.93369   0.53150   0.75000 
O          O       0.56631   0.96851   0.75000 
O          O       0.06631   0.46851   0.75000 
B          B       0.55160   0.00000   0.75000 
B          B       0.05160   0.50000   0.75000 
B          B       0.44840   0.00000   0.75000 
B          B       0.94840   0.50000   0.75000 
C          C       0.65410   0.03832   0.75000 
C          C       0.67622   0.01909   0.75000 
C          C       0.65485   0.07651   0.75000 
C          C       0.67634   0.09478   0.75000 
C          C       0.69756   0.07632   0.75000 
C          C       0.69781   0.03916   0.75000 
C          C       0.15410   0.53832   0.75000 
C          C       0.17622   0.51909   0.75000 
C          C       0.15485   0.57651   0.75000 
C          C       0.17634   0.59478   0.75000 
C          C       0.19756   0.57632   0.75000 
C          C       0.19780   0.53916   0.75000 
C          C       0.34590   0.96168   0.75000 
C          C       0.32378   0.98091   0.75000 
C          C       0.34515   0.92349   0.75000 
C          C       0.32366   0.90522   0.75000 
C          C       0.30244   0.92368   0.75000 
C          C       0.30220   0.96084   0.75000 
C          C       0.84590   0.46168   0.75000 
C          C       0.82378   0.48091   0.75000 
C          C       0.84515   0.42349   0.75000 
C          C       0.82366   0.40522   0.75000 
C          C       0.80244   0.42368   0.75000 
C          C       0.80220   0.46084   0.75000 
C          C       0.34590   0.03832   0.75000 
C          C       0.32378   0.01909   0.75000 
C          C       0.34515   0.07651   0.75000 
C          C       0.32366   0.09478   0.75000 
C          C       0.30244   0.07632   0.75000 
C          C       0.30220   0.03916   0.75000 
C          C       0.84590   0.53832   0.75000 
C          C       0.82378   0.51909   0.75000 
C          C       0.84515   0.57651   0.75000 
C          C       0.82366   0.59478   0.75000 
C          C       0.80244   0.57632   0.75000 
C          C       0.80220   0.53916   0.75000 
C          C       0.65410   0.96168   0.75000 
C          C       0.67622   0.98091   0.75000 
C          C       0.65485   0.92349   0.75000 
C          C       0.67634   0.90522   0.75000 
C          C       0.69756   0.92368   0.75000 
C          C       0.69781   0.96084   0.75000 
C          C       0.15410   0.46168   0.75000 
C          C       0.17622   0.48091   0.75000 
C          C       0.15485   0.42349   0.75000 
C          C       0.17634   0.40522   0.75000 
C          C       0.19756   0.42368   0.75000 
C          C       0.19780   0.46084   0.75000 
O          O       0.71619   0.09882   0.75000 
O          O       0.21619   0.59882   0.75000 
O          O       0.28381   0.90119   0.75000 
O          O       0.78381   0.40119   0.75000 
O          O       0.28381   0.09882   0.75000 
O          O       0.78381   0.59882   0.75000 
O          O       0.71619   0.90119   0.75000 
O          O       0.21619   0.40119   0.75000 
B          B       0.70542   0.13372   0.75000 
B          B       0.20542   0.63372   0.75000 
B          B       0.29458   0.86628   0.75000 
B          B       0.79458   0.36628   0.75000 
B          B       0.29458   0.13372   0.75000 
B          B       0.79458   0.63372   0.75000 
B          B       0.70542   0.86628   0.75000 
B          B       0.20542   0.36628   0.75000 
O          O       0.67996   0.13031   0.75000 
O          O       0.17996   0.63032   0.75000 
O          O       0.32004   0.86969   0.75000 
O          O       0.82004   0.36969   0.75000 
O          O       0.32004   0.13031   0.75000 
O          O       0.82004   0.63032   0.75000 
O          O       0.67996   0.86969   0.75000 
O          O       0.17996   0.36969   0.75000 
H          H       0.60921   0.93223   0.75000 
H          H       0.63765   0.90750   0.75000 
H          H       0.71560   0.97527   0.75000 
H          H       0.10921   0.43223   0.75000 
H          H       0.10921   0.56777   0.75000 
H          H       0.13765   0.59250   0.75000 
H          H       0.13765   0.40750   0.75000 
H          H       0.21560   0.52473   0.75000 
H          H       0.21560   0.47527   0.75000 
H          H       0.39079   0.06777   0.75000 
H          H       0.36235   0.09250   0.75000 
H          H       0.28440   0.02473   0.75000 
H          H       0.89079   0.56777   0.75000 
H          H       0.89079   0.43223   0.75000 
H          H       0.86235   0.40750   0.75000 
H          H       0.86235   0.59250   0.75000 
H          H       0.78440   0.47527   0.75000 
H          H       0.78440   0.52473   0.75000 
H          H       0.39079   0.93223   0.75000 
H          H       0.36235   0.90750   0.75000 
H          H       0.28440   0.97527   0.75000 
H          H       0.60921   0.06777   0.75000 
H          H       0.63765   0.09250   0.75000 
H          H       0.71560   0.02473   0.75000 
C          C       0.47481   0.00000   0.75000 
C          C       0.97481   0.50000   0.75000 
C          C       0.52519   0.00000   0.75000 
C          C       0.02519   0.50000   0.75000 
C          C       0.48752   0.03250   0.75000 
C          C       0.98753   0.53250   0.75000 
C          C       0.51248   0.96751   0.75000 
C          C       0.01248   0.46751   0.75000 
C          C       0.51248   0.03250   0.75000 
C          C       0.01248   0.53250   0.75000 
C          C       0.48752   0.96751   0.75000 
C          C       0.98753   0.46751   0.75000 
H          H       0.47758   0.05899   0.75000 
H          H       0.97758   0.55899   0.75000 
H          H       0.52242   0.94102   0.75000 
H          H       0.02242   0.44101   0.75000 
H          H       0.52242   0.05899   0.75000 
H          H       0.02242   0.55899   0.75000 
H          H       0.47758   0.94102   0.75000 
H          H       0.97758   0.44101   0.75000 
C          C       0.78137   0.66818   0.75000 
C          C       0.28137   0.16818   0.75000 
C          C       0.21863   0.33182   0.75000 
C          C       0.71863   0.83182   0.75000 
C          C       0.21863   0.66818   0.75000 
C          C       0.71863   0.16818   0.75000 
C          C       0.78137   0.33182   0.75000 
C          C       0.28137   0.83182   0.75000 
C          C       0.75630   0.66826   0.75000 
C          C       0.25630   0.16826   0.75000 
C          C       0.24370   0.33175   0.75000 
C          C       0.74370   0.83175   0.75000 
C          C       0.24370   0.66826   0.75000 
C          C       0.74370   0.16826   0.75000 
C          C       0.75630   0.33175   0.75000 
C          C       0.25630   0.83175   0.75000 
C          C       0.78164   0.73382   0.75000 
C          C       0.28164   0.23382   0.75000 
C          C       0.21836   0.26618   0.75000 
C          C       0.71836   0.76618   0.75000 
C          C       0.21836   0.73382   0.75000 
C          C       0.71836   0.23382   0.75000 
C          C       0.78164   0.26618   0.75000 
C          C       0.28164   0.76618   0.75000 
H          H       0.74616   0.64193   0.75000 
H          H       0.24616   0.14193   0.75000 
H          H       0.25384   0.35807   0.75000 
H          H       0.75384   0.85807   0.75000 
H          H       0.25384   0.64193   0.75000 
H          H       0.75384   0.14193   0.75000 
H          H       0.74616   0.35807   0.75000 
H          H       0.24616   0.85807   0.75000 
C          C       0.79386   0.70092   0.75000 
C          C       0.29386   0.20092   0.75000 
C          C       0.20614   0.29908   0.75000 
C          C       0.70614   0.79908   0.75000 
C          C       0.20614   0.70092   0.75000 
C          C       0.70614   0.20092   0.75000 
C          C       0.79386   0.29908   0.75000 
C          C       0.29386   0.79908   0.75000 
C          C       0.74349   0.70065   0.75000 
C          C       0.24349   0.20065   0.75000 
C          C       0.25651   0.29935   0.75000 
C          C       0.75651   0.79935   0.75000 
C          C       0.25651   0.70065   0.75000 
C          C       0.75651   0.20065   0.75000 
C          C       0.74349   0.29935   0.75000 
C          C       0.24349   0.79935   0.75000 
H          H       0.81407   0.70098   0.75000 
H          H       0.31407   0.20098   0.75000 
H          H       0.18593   0.29902   0.75000 
H          H       0.68593   0.79902   0.75000 
H          H       0.18593   0.70098   0.75000 
H          H       0.68593   0.20098   0.75000 
H          H       0.81407   0.29902   0.75000 
H          H       0.31407   0.79902   0.75000 
C          C       0.75634   0.73345   0.75000 
C          C       0.25634   0.23345   0.75000 
C          C       0.24366   0.26655   0.75000 
C          C       0.74366   0.76655   0.75000 
C          C       0.24366   0.73345   0.75000 
C          C       0.74366   0.23345   0.75000 
C          C       0.75634   0.26655   0.75000 
C          C       0.25634   0.76655   0.75000 
C          C       0.70581   0.73333   0.75000 
C          C       0.20581   0.23333   0.75000 
C          C       0.29419   0.26667   0.75000 
C          C       0.79419   0.76667   0.75000 
C          C       0.29419   0.73333   0.75000 
C          C       0.79419   0.23333   0.75000 
C          C       0.70581   0.26667   0.75000 
C          C       0.20581   0.76667   0.75000 
C          C       0.78168   0.79930   0.75000 
C          C       0.28168   0.29930   0.75000 
C          C       0.21832   0.20070   0.75000 
C          C       0.71832   0.70070   0.75000 
C          C       0.21832   0.79930   0.75000 
C          C       0.71832   0.29930   0.75000 
C          C       0.78168   0.20070   0.75000 
C          C       0.28168   0.70070   0.75000 
H          H       0.68561   0.73329   0.75000 
H          H       0.79180   0.82563   0.75000 
H          H       0.18561   0.23329   0.75000 
H          H       0.29180   0.32563   0.75000 
H          H       0.31439   0.26671   0.75000 
H          H       0.20820   0.17437   0.75000 
H          H       0.81439   0.76671   0.75000 
H          H       0.70820   0.67437   0.75000 
H          H       0.31439   0.73329   0.75000 
H          H       0.20820   0.82563   0.75000 
H          H       0.81439   0.23329   0.75000 
H          H       0.70820   0.32563   0.75000 
H          H       0.68561   0.26671   0.75000 
H          H       0.79180   0.17437   0.75000 
H          H       0.18561   0.76671   0.75000 
H          H       0.29180   0.67437   0.75000 
