data_crystal
 
_cell_length_a    30.17500
_cell_length_b    52.27190
_cell_length_c    3.65280
_cell_angle_alpha 90.00000
_cell_angle_beta  110.09260
_cell_angle_gamma 90.00000
 
_symmetry_space_group_name_Hall 'P 1'
_symmetry_space_group_name_H-M  'P 1'
 
loop_
_symmetry_equiv_pos_as_xyz
 'x,y,z' 
 
loop_
_atom_site_label
_atom_site_type_symbol
_atom_site_fract_x
_atom_site_fract_y
_atom_site_fract_z
_atom_site_charge
C          C       0.52327   0.80934   0.47122   0.0000000000
C          C       0.54789   0.83312   0.48651   0.0000000000
C          C       0.59586   0.83215   0.50105   0.0000000000
C          C       0.61806   0.80890   0.49079   0.0000000000
C          C       0.59403   0.78609   0.46576   0.0000000000
C          C       0.54735   0.78602   0.45455   0.0000000000
C          C       0.02327   0.30934   0.47122   0.0000000000
C          C       0.04789   0.33312   0.48651   0.0000000000
C          C       0.09586   0.33215   0.50105   0.0000000000
C          C       0.11806   0.30890   0.49079   0.0000000000
C          C       0.09403   0.28609   0.46576   0.0000000000
C          C       0.04735   0.28602   0.45455   0.0000000000
C          C       0.52327   0.19066   0.47122   0.0000000000
C          C       0.54789   0.16688   0.48651   0.0000000000
C          C       0.59586   0.16785   0.50105   0.0000000000
C          C       0.61806   0.19110   0.49079   0.0000000000
C          C       0.59403   0.21391   0.46576   0.0000000000
C          C       0.54735   0.21398   0.45455   0.0000000000
C          C       0.02327   0.69066   0.47122   0.0000000000
C          C       0.04789   0.66688   0.48651   0.0000000000
C          C       0.09586   0.66785   0.50105   0.0000000000
C          C       0.11806   0.69110   0.49079   0.0000000000
C          C       0.09403   0.71391   0.46576   0.0000000000
C          C       0.04735   0.71398   0.45455   0.0000000000
O          O       0.62166   0.76601   0.45433   0.0000000000
O          O       0.12166   0.26601   0.45433   0.0000000000
O          O       0.62166   0.23399   0.45433   0.0000000000
O          O       0.12166   0.73399   0.45433   0.0000000000
B          B       0.66603   0.77734   0.47498   0.0000000000
B          B       0.16603   0.27734   0.47498   0.0000000000
B          B       0.66603   0.22266   0.47498   0.0000000000
B          B       0.16603   0.72266   0.47498   0.0000000000
O          O       0.66251   0.80476   0.49854   0.0000000000
O          O       0.16251   0.30476   0.49854   0.0000000000
O          O       0.66251   0.19524   0.49854   0.0000000000
O          O       0.16251   0.69524   0.49854   0.0000000000
C          C       0.47583   0.80946   0.47017   0.0000000000
C          C       0.45150   0.83335   0.45437   0.0000000000
C          C       0.45146   0.78626   0.48733   0.0000000000
C          C       0.40480   0.78654   0.47631   0.0000000000
C          C       0.38103   0.80944   0.45120   0.0000000000
C          C       0.40354   0.83260   0.44053   0.0000000000
C          C       0.97583   0.30946   0.47017   0.0000000000
C          C       0.95150   0.33335   0.45437   0.0000000000
C          C       0.95146   0.28626   0.48733   0.0000000000
C          C       0.90480   0.28654   0.47631   0.0000000000
C          C       0.88103   0.30944   0.45120   0.0000000000
C          C       0.90354   0.33260   0.44053   0.0000000000
C          C       0.47583   0.19054   0.47017   0.0000000000
C          C       0.45150   0.16665   0.45437   0.0000000000
C          C       0.45146   0.21374   0.48733   0.0000000000
C          C       0.40480   0.21346   0.47631   0.0000000000
C          C       0.38103   0.19056   0.45120   0.0000000000
C          C       0.40354   0.16740   0.44053   0.0000000000
C          C       0.97583   0.69054   0.47017   0.0000000000
C          C       0.95150   0.66665   0.45437   0.0000000000
C          C       0.95146   0.71374   0.48733   0.0000000000
C          C       0.90480   0.71346   0.47631   0.0000000000
C          C       0.88103   0.69056   0.45120   0.0000000000
C          C       0.90354   0.66740   0.44053   0.0000000000
O          O       0.33654   0.80546   0.44373   0.0000000000
O          O       0.83654   0.30546   0.44373   0.0000000000
O          O       0.33654   0.19454   0.44373   0.0000000000
O          O       0.83654   0.69454   0.44373   0.0000000000
B          B       0.33273   0.77806   0.46746   0.0000000000
B          B       0.83273   0.27806   0.46746   0.0000000000
B          B       0.33273   0.22194   0.46746   0.0000000000
B          B       0.83273   0.72194   0.46746   0.0000000000
O          O       0.37697   0.76657   0.48802   0.0000000000
O          O       0.87697   0.26658   0.48802   0.0000000000
O          O       0.37697   0.23342   0.48802   0.0000000000
O          O       0.87697   0.73342   0.48802   0.0000000000
C          C       0.52420   0.85687   0.48312   0.0000000000
C          C       0.47546   0.85700   0.45635   0.0000000000
C          C       0.45244   0.88117   0.43567   0.0000000000
C          C       0.47660   0.90412   0.45048   0.0000000000
C          C       0.52366   0.90397   0.48497   0.0000000000
C          C       0.54753   0.88092   0.50199   0.0000000000
C          C       0.02420   0.35687   0.48312   0.0000000000
C          C       0.02366   0.40397   0.48497   0.0000000000
C          C       0.04753   0.38092   0.50199   0.0000000000
C          C       0.52420   0.14313   0.48312   0.0000000000
C          C       0.47546   0.14300   0.45635   0.0000000000
C          C       0.45244   0.11883   0.43567   0.0000000000
C          C       0.47660   0.09588   0.45048   0.0000000000
C          C       0.52366   0.09603   0.48497   0.0000000000
C          C       0.54753   0.11908   0.50199   0.0000000000
C          C       0.02420   0.64313   0.48312   0.0000000000
C          C       0.02366   0.59603   0.48497   0.0000000000
C          C       0.04753   0.61908   0.50199   0.0000000000
C          C       0.97546   0.35700   0.45635   0.0000000000
C          C       0.95244   0.38117   0.43567   0.0000000000
C          C       0.97660   0.40412   0.45048   0.0000000000
C          C       0.97546   0.64300   0.45635   0.0000000000
C          C       0.95244   0.61883   0.43567   0.0000000000
C          C       0.97660   0.59588   0.45048   0.0000000000
O          O       0.54028   0.92801   0.49586   0.0000000000
O          O       0.04028   0.42801   0.49586   0.0000000000
O          O       0.54028   0.07199   0.49586   0.0000000000
O          O       0.04028   0.57199   0.49586   0.0000000000
B          B       0.50049   0.94420   0.46550   0.0000000000
B          B       0.00049   0.44420   0.46550   0.0000000000
B          B       0.50049   0.05580   0.46550   0.0000000000
B          B       0.00049   0.55580   0.46550   0.0000000000
O          O       0.46040   0.92830   0.43705   0.0000000000
O          O       0.96040   0.42830   0.43705   0.0000000000
O          O       0.46040   0.07170   0.43705   0.0000000000
O          O       0.96040   0.57170   0.43705   0.0000000000
H          H       0.61616   0.84786   0.51628   0.0000000000
H          H       0.53228   0.76845   0.43106   0.0000000000
H          H       0.46629   0.76862   0.51104   0.0000000000
H          H       0.38348   0.84841   0.42550   0.0000000000
H          H       0.41805   0.88313   0.41020   0.0000000000
H          H       0.58195   0.88273   0.52732   0.0000000000
H          H       0.11616   0.34786   0.51628   0.0000000000
H          H       0.03228   0.26845   0.43106   0.0000000000
H          H       0.08194   0.38273   0.52732   0.0000000000
H          H       0.61616   0.15214   0.51628   0.0000000000
H          H       0.53228   0.23155   0.43106   0.0000000000
H          H       0.46629   0.23138   0.51104   0.0000000000
H          H       0.38348   0.15159   0.42550   0.0000000000
H          H       0.41805   0.11687   0.41020   0.0000000000
H          H       0.58195   0.11727   0.52732   0.0000000000
H          H       0.11616   0.65214   0.51628   0.0000000000
H          H       0.03228   0.73155   0.43106   0.0000000000
H          H       0.08194   0.61727   0.52732   0.0000000000
H          H       0.96629   0.26862   0.51104   0.0000000000
H          H       0.88348   0.34841   0.42550   0.0000000000
H          H       0.91805   0.38313   0.41020   0.0000000000
H          H       0.96629   0.73138   0.51104   0.0000000000
H          H       0.88348   0.65159   0.42550   0.0000000000
H          H       0.91805   0.61687   0.41020   0.0000000000
C          C       0.79007   0.73609   0.47002   0.0000000000
C          C       0.29007   0.23609   0.47002   0.0000000000
C          C       0.79007   0.26391   0.47002   0.0000000000
C          C       0.29007   0.76391   0.47002   0.0000000000
C          C       0.74836   0.72278   0.44271   0.0000000000
C          C       0.24836   0.22279   0.44271   0.0000000000
C          C       0.74836   0.27721   0.44271   0.0000000000
C          C       0.24836   0.77721   0.44271   0.0000000000
C          C       0.75035   0.77643   0.49995   0.0000000000
C          C       0.25035   0.27643   0.49995   0.0000000000
C          C       0.75035   0.22357   0.49995   0.0000000000
C          C       0.25035   0.72357   0.49995   0.0000000000
H          H       0.74708   0.70326   0.42194   0.0000000000
H          H       0.24708   0.20326   0.42194   0.0000000000
H          H       0.74708   0.29674   0.42194   0.0000000000
H          H       0.24708   0.79674   0.42194   0.0000000000
C          C       0.79077   0.76301   0.49928   0.0000000000
C          C       0.29077   0.26301   0.49928   0.0000000000
C          C       0.79077   0.23699   0.49928   0.0000000000
C          C       0.29077   0.73699   0.49928   0.0000000000
C          C       0.70793   0.73621   0.44339   0.0000000000
C          C       0.20793   0.23621   0.44339   0.0000000000
C          C       0.70793   0.26379   0.44339   0.0000000000
C          C       0.20793   0.76379   0.44339   0.0000000000
H          H       0.82061   0.77306   0.51924   0.0000000000
H          H       0.32061   0.27306   0.51924   0.0000000000
H          H       0.82061   0.22694   0.51924   0.0000000000
H          H       0.32061   0.72694   0.51924   0.0000000000
C          C       0.70863   0.76313   0.47260   0.0000000000
C          C       0.20863   0.26313   0.47260   0.0000000000
C          C       0.70863   0.23687   0.47260   0.0000000000
C          C       0.20863   0.73687   0.47260   0.0000000000
H          H       0.67807   0.72618   0.42340   0.0000000000
H          H       0.17807   0.22618   0.42340   0.0000000000
H          H       0.67807   0.27382   0.42340   0.0000000000
H          H       0.17807   0.77382   0.42340   0.0000000000
H          H       0.75164   0.79596   0.52065   0.0000000000
H          H       0.25164   0.29596   0.52065   0.0000000000
H          H       0.75164   0.20404   0.52065   0.0000000000
H          H       0.25164   0.70404   0.52065   0.0000000000
C          C       0.50073   0.02734   0.46394   0.0000000000
C          C       0.00073   0.52734   0.46394   0.0000000000
C          C       0.50073   0.97266   0.46394   0.0000000000
C          C       0.00073   0.47266   0.46394   0.0000000000
C          C       0.54165   0.01335   0.48891   0.0000000000
C          C       0.04165   0.51335   0.48891   0.0000000000
C          C       0.54165   0.98665   0.48891   0.0000000000
C          C       0.04165   0.48665   0.48891   0.0000000000
C          C       0.45952   0.98650   0.43826   0.0000000000
C          C       0.95952   0.48650   0.43826   0.0000000000
C          C       0.45952   0.01350   0.43826   0.0000000000
C          C       0.95952   0.51350   0.43826   0.0000000000
N          N       0.58394   0.02277   0.51520   0.0000000000
N          N       0.08394   0.52277   0.51520   0.0000000000
N          N       0.58394   0.97723   0.51520   0.0000000000
N          N       0.08394   0.47723   0.51520   0.0000000000
S          S       0.62447   0.00000   0.54187   0.0000000000
S          S       0.12446   0.50000   0.54187   0.0000000000
H          H       0.42928   0.02297   0.42187   0.0000000000
H          H       0.92928   0.52297   0.42187   0.0000000000
H          H       0.42928   0.97703   0.42187   0.0000000000
H          H       0.92928   0.47703   0.42187   0.0000000000
