data_crystal
 
_cell_length_a    31.41130
_cell_length_b    33.83300
_cell_length_c    7.11220
_cell_angle_alpha 90.00000
_cell_angle_beta  90.00000
_cell_angle_gamma 65.51750
 
_symmetry_space_group_name_Hall 'P 1'
_symmetry_space_group_name_H-M  'P 1'
 
loop_
_symmetry_equiv_pos_as_xyz
 'x,y,z' 
 
loop_
_atom_site_label
_atom_site_type_symbol
_atom_site_fract_x
_atom_site_fract_y
_atom_site_fract_z
_atom_site_charge
C          C       0.32797   0.30981   0.22867   0.0000000000
C          C       0.37293   0.31159   0.21925   0.0000000000
C          C       0.41361   0.27173   0.19607   0.0000000000
C          C       0.41036   0.23182   0.19188   0.0000000000
C          C       0.36727   0.23005   0.20570   0.0000000000
C          C       0.32653   0.26809   0.22339   0.0000000000
C          C       0.67203   0.69018   0.22867   0.0000000000
C          C       0.62707   0.68841   0.21925   0.0000000000
C          C       0.58639   0.72827   0.19607   0.0000000000
C          C       0.58964   0.76818   0.19188   0.0000000000
C          C       0.63273   0.76995   0.20570   0.0000000000
C          C       0.67347   0.73191   0.22339   0.0000000000
O          O       0.37162   0.18871   0.19833   0.0000000000
O          O       0.62838   0.81129   0.19833   0.0000000000
B          B       0.42125   0.16299   0.17968   0.0000000000
B          B       0.57875   0.83701   0.17968   0.0000000000
O          O       0.44481   0.19160   0.17520   0.0000000000
O          O       0.55519   0.80840   0.17520   0.0000000000
C          C       0.28631   0.34910   0.24257   0.0000000000
C          C       0.71369   0.65090   0.24257   0.0000000000
C          C       0.28941   0.39035   0.25108   0.0000000000
C          C       0.71059   0.60965   0.25108   0.0000000000
C          C       0.24088   0.34884   0.24687   0.0000000000
C          C       0.75912   0.65116   0.24687   0.0000000000
C          C       0.20047   0.38732   0.25948   0.0000000000
C          C       0.79953   0.61268   0.25948   0.0000000000
C          C       0.20345   0.42692   0.26765   0.0000000000
C          C       0.79654   0.57308   0.26765   0.0000000000
C          C       0.24692   0.42889   0.26393   0.0000000000
C          C       0.75308   0.57111   0.26393   0.0000000000
H          H       0.44652   0.26998   0.18085   0.0000000000
H          H       0.55348   0.73002   0.18085   0.0000000000
H          H       0.29656   0.26359   0.23177   0.0000000000
H          H       0.70344   0.73641   0.23177   0.0000000000
H          H       0.23523   0.32143   0.24048   0.0000000000
H          H       0.76476   0.67857   0.24048   0.0000000000
H          H       0.24564   0.45931   0.27086   0.0000000000
H          H       0.75436   0.54069   0.27086   0.0000000000
H          H       0.31139   0.46174   0.26585   0.0000000000
H          H       0.68861   0.53826   0.26585   0.0000000000
H          H       0.45152   0.32931   0.22893   0.0000000000
H          H       0.54848   0.67069   0.22893   0.0000000000
C          C       0.44446   0.11477   0.16999   0.0000000000
C          C       0.55554   0.88523   0.16999   0.0000000000
C          C       0.41731   0.09031   0.16546   0.0000000000
C          C       0.58269   0.90969   0.16546   0.0000000000
C          C       0.43890   0.04446   0.16340   0.0000000000
C          C       0.56110   0.95554   0.16340   0.0000000000
C          C       0.49380   0.09334   0.16756   0.0000000000
C          C       0.50620   0.90666   0.16756   0.0000000000
C          C       0.51658   0.04753   0.16410   0.0000000000
C          C       0.48342   0.95247   0.16410   0.0000000000
C          C       0.48875   0.02323   0.16338   0.0000000000
C          C       0.51125   0.97677   0.16338   0.0000000000
C          C       0.56616   0.02596   0.16302   0.0000000000
C          C       0.43384   0.97404   0.16302   0.0000000000
H          H       0.37750   0.10758   0.16341   0.0000000000
H          H       0.51573   0.11305   0.16838   0.0000000000
H          H       0.58812   0.04564   0.16260   0.0000000000
H          H       0.62250   0.89242   0.16341   0.0000000000
H          H       0.48427   0.88695   0.16838   0.0000000000
H          H       0.41188   0.95436   0.16260   0.0000000000
O          O       0.16057   0.45994   0.27823   0.0000000000
O          O       0.83943   0.54006   0.27823   0.0000000000
B          B       0.12896   0.43891   0.27643   0.0000000000
B          B       0.87104   0.56109   0.27643   0.0000000000
O          O       0.15548   0.39258   0.26471   0.0000000000
O          O       0.84452   0.60742   0.26471   0.0000000000
C          C       0.37607   0.35247   0.23286   0.0000000000
C          C       0.33419   0.39201   0.24709   0.0000000000
C          C       0.33886   0.43228   0.25682   0.0000000000
C          C       0.38274   0.43345   0.25579   0.0000000000
C          C       0.42296   0.39543   0.24598   0.0000000000
C          C       0.42024   0.35540   0.23484   0.0000000000
C          C       0.62393   0.64753   0.23286   0.0000000000
C          C       0.66581   0.60799   0.24709   0.0000000000
C          C       0.66114   0.56772   0.25682   0.0000000000
C          C       0.61726   0.56655   0.25579   0.0000000000
C          C       0.57704   0.60457   0.24598   0.0000000000
C          C       0.57976   0.64460   0.23484   0.0000000000
O          O       0.46150   0.40368   0.24844   0.0000000000
O          O       0.53850   0.59632   0.24844   0.0000000000
B          B       0.44351   0.45034   0.25888   0.0000000000
B          B       0.55649   0.54966   0.25888   0.0000000000
O          O       0.39312   0.46834   0.26330   0.0000000000
O          O       0.60688   0.53166   0.26330   0.0000000000
H          H       0.41169   0.01984   0.16248   0.0000000000
H          H       0.37187   0.03706   0.16129   0.0000000000
H          H       0.58831   0.98016   0.16248   0.0000000000
H          H       0.62813   0.96294   0.16129   0.0000000000
C          C       0.47242   0.47576   0.26246   0.0000000000
C          C       0.52169   0.45438   0.26305   0.0000000000
C          C       0.52758   0.52424   0.26246   0.0000000000
C          C       0.47831   0.54562   0.26305   0.0000000000
H          H       0.53814   0.42119   0.26269   0.0000000000
H          H       0.46186   0.57881   0.26269   0.0000000000
C          C       0.45095   0.52159   0.26384   0.0000000000
C          C       0.54905   0.47841   0.26384   0.0000000000
H          H       0.41527   0.53792   0.26439   0.0000000000
H          H       0.58473   0.46208   0.26439   0.0000000000
C          C       0.92279   0.53867   0.28340   0.0000000000
C          C       0.07721   0.46133   0.28340   0.0000000000
S          S       0.95763   0.56761   0.28624   0.0000000000
S          S       0.04237   0.43239   0.28624   0.0000000000
C          C       0.00515   0.51779   0.28690   0.0000000000
C          C       0.05273   0.50647   0.28560   0.0000000000
C          C       0.99485   0.48221   0.28690   0.0000000000
C          C       0.94727   0.49353   0.28560   0.0000000000
H          H       0.93261   0.47170   0.28486   0.0000000000
H          H       0.06739   0.52830   0.28486   0.0000000000
C          C       0.32797   0.30981   0.72867   0.0000000000
C          C       0.37293   0.31159   0.71925   0.0000000000
C          C       0.41361   0.27173   0.69607   0.0000000000
C          C       0.41036   0.23182   0.69188   0.0000000000
C          C       0.36727   0.23005   0.70570   0.0000000000
C          C       0.32653   0.26809   0.72340   0.0000000000
C          C       0.67203   0.69018   0.72867   0.0000000000
C          C       0.62707   0.68841   0.71925   0.0000000000
C          C       0.58639   0.72827   0.69607   0.0000000000
C          C       0.58964   0.76818   0.69188   0.0000000000
C          C       0.63273   0.76995   0.70570   0.0000000000
C          C       0.67347   0.73191   0.72340   0.0000000000
O          O       0.37162   0.18871   0.69833   0.0000000000
O          O       0.62838   0.81129   0.69833   0.0000000000
B          B       0.42125   0.16299   0.67968   0.0000000000
B          B       0.57875   0.83701   0.67968   0.0000000000
O          O       0.44481   0.19160   0.67520   0.0000000000
O          O       0.55519   0.80840   0.67520   0.0000000000
C          C       0.28631   0.34910   0.74257   0.0000000000
C          C       0.71369   0.65090   0.74257   0.0000000000
C          C       0.28941   0.39035   0.75108   0.0000000000
C          C       0.71059   0.60965   0.75108   0.0000000000
C          C       0.24088   0.34884   0.74688   0.0000000000
C          C       0.75912   0.65116   0.74688   0.0000000000
C          C       0.20047   0.38732   0.75948   0.0000000000
C          C       0.79953   0.61268   0.75948   0.0000000000
C          C       0.20345   0.42692   0.76764   0.0000000000
C          C       0.79654   0.57308   0.76764   0.0000000000
C          C       0.24692   0.42889   0.76393   0.0000000000
C          C       0.75308   0.57111   0.76393   0.0000000000
H          H       0.44652   0.26998   0.68085   0.0000000000
H          H       0.55348   0.73002   0.68085   0.0000000000
H          H       0.29656   0.26359   0.73177   0.0000000000
H          H       0.70344   0.73641   0.73177   0.0000000000
H          H       0.23523   0.32143   0.74048   0.0000000000
H          H       0.76476   0.67857   0.74048   0.0000000000
H          H       0.24564   0.45931   0.77085   0.0000000000
H          H       0.75436   0.54069   0.77085   0.0000000000
H          H       0.31139   0.46174   0.76585   0.0000000000
H          H       0.68861   0.53826   0.76585   0.0000000000
H          H       0.45152   0.32931   0.72893   0.0000000000
H          H       0.54848   0.67069   0.72893   0.0000000000
C          C       0.44446   0.11477   0.66999   0.0000000000
C          C       0.55554   0.88523   0.66999   0.0000000000
C          C       0.41731   0.09031   0.66546   0.0000000000
C          C       0.58269   0.90969   0.66546   0.0000000000
C          C       0.43890   0.04446   0.66340   0.0000000000
C          C       0.56110   0.95554   0.66340   0.0000000000
C          C       0.49380   0.09334   0.66756   0.0000000000
C          C       0.50620   0.90666   0.66756   0.0000000000
C          C       0.51658   0.04753   0.66410   0.0000000000
C          C       0.48342   0.95247   0.66410   0.0000000000
C          C       0.48875   0.02323   0.66338   0.0000000000
C          C       0.51125   0.97677   0.66338   0.0000000000
C          C       0.56616   0.02596   0.66302   0.0000000000
C          C       0.43384   0.97404   0.66302   0.0000000000
H          H       0.37750   0.10758   0.66341   0.0000000000
H          H       0.51573   0.11305   0.66838   0.0000000000
H          H       0.58812   0.04564   0.66260   0.0000000000
H          H       0.62250   0.89242   0.66341   0.0000000000
H          H       0.48427   0.88695   0.66838   0.0000000000
H          H       0.41188   0.95436   0.66260   0.0000000000
O          O       0.16057   0.45994   0.77822   0.0000000000
O          O       0.83943   0.54006   0.77822   0.0000000000
B          B       0.12896   0.43891   0.77643   0.0000000000
B          B       0.87104   0.56109   0.77643   0.0000000000
O          O       0.15548   0.39258   0.76471   0.0000000000
O          O       0.84452   0.60742   0.76471   0.0000000000
C          C       0.37607   0.35247   0.73286   0.0000000000
C          C       0.33419   0.39201   0.74709   0.0000000000
C          C       0.33886   0.43228   0.75682   0.0000000000
C          C       0.38274   0.43345   0.75579   0.0000000000
C          C       0.42296   0.39543   0.74598   0.0000000000
C          C       0.42024   0.35540   0.73484   0.0000000000
C          C       0.62393   0.64753   0.73286   0.0000000000
C          C       0.66581   0.60799   0.74709   0.0000000000
C          C       0.66114   0.56772   0.75682   0.0000000000
C          C       0.61726   0.56655   0.75579   0.0000000000
C          C       0.57704   0.60457   0.74598   0.0000000000
C          C       0.57976   0.64460   0.73484   0.0000000000
O          O       0.46150   0.40368   0.74844   0.0000000000
O          O       0.53850   0.59632   0.74844   0.0000000000
B          B       0.44351   0.45034   0.75888   0.0000000000
B          B       0.55649   0.54966   0.75888   0.0000000000
O          O       0.39312   0.46834   0.76330   0.0000000000
O          O       0.60688   0.53166   0.76330   0.0000000000
H          H       0.41169   0.01984   0.66248   0.0000000000
H          H       0.37187   0.03706   0.66129   0.0000000000
H          H       0.58831   0.98016   0.66248   0.0000000000
H          H       0.62813   0.96294   0.66129   0.0000000000
C          C       0.47242   0.47576   0.76246   0.0000000000
C          C       0.52169   0.45438   0.76305   0.0000000000
C          C       0.52758   0.52424   0.76246   0.0000000000
C          C       0.47831   0.54562   0.76305   0.0000000000
H          H       0.53814   0.42119   0.76268   0.0000000000
H          H       0.46186   0.57881   0.76268   0.0000000000
C          C       0.45095   0.52159   0.76384   0.0000000000
C          C       0.54905   0.47841   0.76384   0.0000000000
H          H       0.41527   0.53792   0.76439   0.0000000000
H          H       0.58473   0.46208   0.76439   0.0000000000
C          C       0.92279   0.53867   0.78340   0.0000000000
C          C       0.07721   0.46133   0.78340   0.0000000000
S          S       0.95763   0.56761   0.78624   0.0000000000
S          S       0.04237   0.43239   0.78624   0.0000000000
C          C       0.00515   0.51779   0.78690   0.0000000000
C          C       0.05273   0.50647   0.78560   0.0000000000
C          C       0.99485   0.48221   0.78690   0.0000000000
C          C       0.94727   0.49353   0.78560   0.0000000000
H          H       0.93261   0.47170   0.78486   0.0000000000
H          H       0.06739   0.52830   0.78486   0.0000000000
