data_crystal

_cell_length_a    29.85300
_cell_length_b    29.85300
_cell_length_c    7.20000
_cell_angle_alpha 90.00000
_cell_angle_beta  90.00000
_cell_angle_gamma 60.00000

_space_group_name_Hall 'P 1'
_space_group_name_H-M_alt  'P 1'

loop_
_symmetry_equiv_pos_as_xyz
'x,y,z'

loop_
_atom_site_label
_atom_site_type_symbol
_atom_site_fract_x
_atom_site_fract_y
_atom_site_fract_z
H          H       0.32412   0.66562   0.57171
H          H       0.34656   0.57689   0.82067
H          H       0.67588   0.33438   0.57171
H          H       0.65344   0.42311   0.82067
H          H       0.67588   0.33438   0.81718
H          H       0.65344   0.42311   0.56822
H          H       0.32412   0.66562   0.81718
H          H       0.34656   0.57689   0.56822
H          H       0.72182   0.34346   0.69444
H          H       0.52416   0.41185   0.69444
H          H       0.52767   0.60875   0.69444
H          H       0.55299   0.66969   0.69444
C          C       0.44884   0.53901   0.69444
C          C       0.48843   0.54886   0.69444
C          C       0.57789   0.53030   0.69444
C          C       0.54002   0.51224   0.69444
C          C       0.59153   0.63980   0.69444
C          C       0.64650   0.40751   0.69444
O          O       0.59731   0.41504   0.69444
C          C       0.68253   0.35139   0.69444
N          N       0.56451   0.58008   0.69444
N          N       0.60182   0.59355   0.69444
O          O       0.62219   0.50065   0.69444
H          H       0.27818   0.65654   0.69444
H          H       0.47584   0.58815   0.69444
H          H       0.47233   0.39125   0.69444
H          H       0.44701   0.33031   0.69444
C          C       0.55117   0.46099   0.69444
C          C       0.51157   0.45114   0.69444
C          C       0.42211   0.46970   0.69444
C          C       0.45998   0.48776   0.69444
C          C       0.40847   0.36020   0.69444
C          C       0.35350   0.59249   0.69444
O          O       0.40270   0.58496   0.69444
C          C       0.31747   0.64862   0.69444
N          N       0.43549   0.41992   0.69444
N          N       0.39818   0.40645   0.69444
O          O       0.37781   0.49935   0.69444
H          H       0.01026   0.32412   0.57171
H          H       0.07655   0.34656   0.82067
H          H       0.98974   0.67588   0.57171
H          H       0.92345   0.65344   0.82067
H          H       0.98974   0.67588   0.81718
H          H       0.92345   0.65344   0.56822
H          H       0.01026   0.32412   0.81718
H          H       0.07655   0.34656   0.56822
H          H       0.93472   0.72182   0.69444
H          H       0.06399   0.52416   0.69444
H          H       0.86358   0.52767   0.69444
H          H       0.77733   0.55299   0.69444
C          C       0.01215   0.44884   0.69444
C          C       0.96271   0.48843   0.69444
C          C       0.89181   0.57789   0.69444
C          C       0.94774   0.54002   0.69444
C          C       0.76867   0.59153   0.69444
C          C       0.94599   0.64650   0.69444
O          O       0.98766   0.59731   0.69444
C          C       0.96609   0.68253   0.69444
N          N       0.85541   0.56451   0.69444
N          N       0.80463   0.60182   0.69444
O          O       0.87716   0.62219   0.69444
H          H       0.06528   0.27818   0.69444
H          H       0.93601   0.47584   0.69444
H          H       0.13642   0.47233   0.69444
H          H       0.22267   0.44701   0.69444
C          C       0.98785   0.55117   0.69444
C          C       0.03729   0.51157   0.69444
C          C       0.10819   0.42211   0.69444
C          C       0.05226   0.45998   0.69444
C          C       0.23133   0.40847   0.69444
C          C       0.05401   0.35350   0.69444
O          O       0.01235   0.40270   0.69444
C          C       0.03391   0.31747   0.69444
N          N       0.14459   0.43549   0.69444
N          N       0.19537   0.39818   0.69444
O          O       0.12284   0.37781   0.69444
H          H       0.66562   0.01026   0.57171
H          H       0.57689   0.07655   0.82067
H          H       0.33438   0.98974   0.57171
H          H       0.42311   0.92345   0.82067
H          H       0.33438   0.98974   0.81718
H          H       0.42311   0.92345   0.56822
H          H       0.66562   0.01026   0.81718
H          H       0.57689   0.07655   0.56822
H          H       0.34346   0.93472   0.69444
H          H       0.41185   0.06399   0.69444
H          H       0.60875   0.86358   0.69444
H          H       0.66969   0.77733   0.69444
C          C       0.53901   0.01215   0.69444
C          C       0.54886   0.96271   0.69444
C          C       0.53030   0.89181   0.69444
C          C       0.51224   0.94774   0.69444
C          C       0.63980   0.76867   0.69444
C          C       0.40751   0.94599   0.69444
O          O       0.41504   0.98766   0.69444
C          C       0.35139   0.96609   0.69444
N          N       0.58008   0.85541   0.69444
N          N       0.59355   0.80463   0.69444
O          O       0.50065   0.87716   0.69444
H          H       0.65654   0.06528   0.69444
H          H       0.58815   0.93601   0.69444
H          H       0.39125   0.13642   0.69444
H          H       0.33031   0.22267   0.69444
C          C       0.46099   0.98785   0.69444
C          C       0.45114   0.03729   0.69444
C          C       0.46970   0.10819   0.69444
C          C       0.48776   0.05226   0.69444
C          C       0.36020   0.23133   0.69444
C          C       0.59249   0.05401   0.69444
O          O       0.58496   0.01235   0.69444
C          C       0.64862   0.03391   0.69444
N          N       0.41992   0.14459   0.69444
N          N       0.40645   0.19537   0.69444
O          O       0.49935   0.12284   0.69444
C          C       0.68205   0.61400   0.69444
C          C       0.62850   0.65095   0.69444
O          O       0.69556   0.57038   0.69444
C          C       0.61400   0.70395   0.69444
C          C       0.65095   0.72056   0.69444
O          O       0.57038   0.73406   0.69444
C          C       0.70395   0.68205   0.69444
C          C       0.72056   0.62850   0.69444
O          O       0.73406   0.69556   0.69444
C          C       0.31795   0.38600   0.69444
C          C       0.37150   0.34906   0.69444
O          O       0.30444   0.42962   0.69444
C          C       0.38600   0.29606   0.69444
C          C       0.34906   0.27944   0.69444
O          O       0.42962   0.26594   0.69444
C          C       0.29606   0.31795   0.69444
C          C       0.27944   0.37150   0.69444
O          O       0.26594   0.30444   0.69444
H          H       0.32412   0.66562   0.07171
H          H       0.34656   0.57689   0.32067
H          H       0.67588   0.33438   0.07171
H          H       0.65344   0.42311   0.32067
H          H       0.67588   0.33438   0.31718
H          H       0.65344   0.42311   0.06822
H          H       0.32412   0.66562   0.31718
H          H       0.34656   0.57689   0.06822
H          H       0.72182   0.34346   0.19444
H          H       0.52416   0.41185   0.19444
H          H       0.52767   0.60875   0.19444
H          H       0.55299   0.66969   0.19444
C          C       0.44884   0.53901   0.19444
C          C       0.48843   0.54886   0.19444
C          C       0.57789   0.53030   0.19444
C          C       0.54002   0.51224   0.19444
C          C       0.59153   0.63980   0.19444
C          C       0.64650   0.40751   0.19444
O          O       0.59731   0.41504   0.19444
C          C       0.68253   0.35139   0.19444
N          N       0.56451   0.58008   0.19444
N          N       0.60182   0.59355   0.19444
O          O       0.62219   0.50065   0.19444
H          H       0.27818   0.65654   0.19444
H          H       0.47584   0.58815   0.19444
H          H       0.47233   0.39125   0.19444
H          H       0.44701   0.33031   0.19444
C          C       0.55117   0.46099   0.19444
C          C       0.51157   0.45114   0.19444
C          C       0.42211   0.46970   0.19444
C          C       0.45998   0.48776   0.19444
C          C       0.40847   0.36020   0.19444
C          C       0.35350   0.59249   0.19444
O          O       0.40270   0.58496   0.19444
C          C       0.31747   0.64862   0.19444
N          N       0.43549   0.41992   0.19444
N          N       0.39818   0.40645   0.19444
O          O       0.37781   0.49935   0.19444
H          H       0.01026   0.32412   0.07171
H          H       0.07655   0.34656   0.32067
H          H       0.98974   0.67588   0.07171
H          H       0.92345   0.65344   0.32067
H          H       0.98974   0.67588   0.31718
H          H       0.92345   0.65344   0.06822
H          H       0.01026   0.32412   0.31718
H          H       0.07655   0.34656   0.06822
H          H       0.93472   0.72182   0.19444
H          H       0.06399   0.52416   0.19444
H          H       0.86358   0.52767   0.19444
H          H       0.77733   0.55299   0.19444
C          C       0.01215   0.44884   0.19444
C          C       0.96271   0.48843   0.19444
C          C       0.89181   0.57789   0.19444
C          C       0.94774   0.54002   0.19444
C          C       0.76867   0.59153   0.19444
C          C       0.94599   0.64650   0.19444
O          O       0.98766   0.59731   0.19444
C          C       0.96609   0.68253   0.19444
N          N       0.85541   0.56451   0.19444
N          N       0.80463   0.60182   0.19444
O          O       0.87716   0.62219   0.19444
H          H       0.06528   0.27818   0.19444
H          H       0.93601   0.47584   0.19444
H          H       0.13642   0.47233   0.19444
H          H       0.22267   0.44701   0.19444
C          C       0.98785   0.55117   0.19444
C          C       0.03729   0.51157   0.19444
C          C       0.10819   0.42211   0.19444
C          C       0.05226   0.45998   0.19444
C          C       0.23133   0.40847   0.19444
C          C       0.05401   0.35350   0.19444
O          O       0.01235   0.40270   0.19444
C          C       0.03391   0.31747   0.19444
N          N       0.14459   0.43549   0.19444
N          N       0.19537   0.39818   0.19444
O          O       0.12284   0.37781   0.19444
H          H       0.66562   0.01026   0.07171
H          H       0.57689   0.07655   0.32067
H          H       0.33438   0.98974   0.07171
H          H       0.42311   0.92345   0.32067
H          H       0.33438   0.98974   0.31718
H          H       0.42311   0.92345   0.06822
H          H       0.66562   0.01026   0.31718
H          H       0.57689   0.07655   0.06822
H          H       0.34346   0.93472   0.19444
H          H       0.41185   0.06399   0.19444
H          H       0.60875   0.86358   0.19444
H          H       0.66969   0.77733   0.19444
C          C       0.53901   0.01215   0.19444
C          C       0.54886   0.96271   0.19444
C          C       0.53030   0.89181   0.19444
C          C       0.51224   0.94774   0.19444
C          C       0.63980   0.76867   0.19444
C          C       0.40751   0.94599   0.19444
O          O       0.41504   0.98766   0.19444
C          C       0.35139   0.96609   0.19444
N          N       0.58008   0.85541   0.19444
N          N       0.59355   0.80463   0.19444
O          O       0.50065   0.87716   0.19444
H          H       0.65654   0.06528   0.19444
H          H       0.58815   0.93601   0.19444
H          H       0.39125   0.13642   0.19444
H          H       0.33031   0.22267   0.19444
C          C       0.46099   0.98785   0.19444
C          C       0.45114   0.03729   0.19444
C          C       0.46970   0.10819   0.19444
C          C       0.48776   0.05226   0.19444
C          C       0.36020   0.23133   0.19444
C          C       0.59249   0.05401   0.19444
O          O       0.58496   0.01235   0.19444
C          C       0.64862   0.03391   0.19444
N          N       0.41992   0.14459   0.19444
N          N       0.40645   0.19537   0.19444
O          O       0.49935   0.12284   0.19444
C          C       0.68205   0.61400   0.19444
C          C       0.62850   0.65095   0.19444
O          O       0.69556   0.57038   0.19444
C          C       0.61400   0.70395   0.19444
C          C       0.65095   0.72056   0.19444
O          O       0.57038   0.73406   0.19444
C          C       0.70395   0.68205   0.19444
C          C       0.72056   0.62850   0.19444
O          O       0.73406   0.69556   0.19444
C          C       0.31795   0.38600   0.19444
C          C       0.37150   0.34906   0.19444
O          O       0.30444   0.42962   0.19444
C          C       0.38600   0.29606   0.19444
C          C       0.34906   0.27944   0.19444
O          O       0.42962   0.26594   0.19444
C          C       0.29606   0.31795   0.19444
C          C       0.27944   0.37150   0.19444
O          O       0.26594   0.30444   0.19444
H          H       0.64249   0.55337   0.20795
H          H       0.79804   0.63922   0.18306
H          H       0.55639   0.80324   0.19344
H          H       0.19151   0.36150   0.20521
H          H       0.43418   0.20006   0.19410
H          H       0.36080   0.43552   0.18436
H          H       0.55265   0.81030   0.67028
H          H       0.80995   0.63302   0.72934
H          H       0.63229   0.56302   0.68627
H          H       0.36426   0.43081   0.69396
H          H       0.44136   0.19637   0.72086
H          H       0.21053   0.35458   0.66212
