data_crystal
 
_cell_length_a    29.85300
_cell_length_b    29.85300
_cell_length_c    3.60000
_cell_angle_alpha 90.00000
_cell_angle_beta  90.00000
_cell_angle_gamma 60.00000
 
_symmetry_space_group_name_Hall 'P 1'
_symmetry_space_group_name_H-M  'P 1'
 
loop_
_symmetry_equiv_pos_as_xyz
 'x,y,z' 
 
loop_
_atom_site_label
_atom_site_type_symbol
_atom_site_fract_x
_atom_site_fract_y
_atom_site_fract_z
_atom_site_charge
H          H       0.32412   0.66562   1.14341   0.0000000000
H          H       0.34656   0.57689   1.64134   0.0000000000
H          H       0.67588   0.33438   1.14341   0.0000000000
H          H       0.65344   0.42311   1.64134   0.0000000000
H          H       0.67588   0.33438   1.63436   0.0000000000
H          H       0.65344   0.42311   1.13644   0.0000000000
H          H       0.32412   0.66562   1.63436   0.0000000000
H          H       0.34656   0.57689   1.13644   0.0000000000
H          H       0.72182   0.34346   1.38889   0.0000000000
H          H       0.52416   0.41185   1.38889   0.0000000000
H          H       0.52767   0.60875   1.38889   0.0000000000
H          H       0.55299   0.66969   1.38889   0.0000000000
C          C       0.44884   0.53901   1.38889   0.0000000000
C          C       0.48843   0.54886   1.38889   0.0000000000
C          C       0.57789   0.53030   1.38889   0.0000000000
C          C       0.54002   0.51224   1.38889   0.0000000000
C          C       0.59153   0.63980   1.38889   0.0000000000
C          C       0.64650   0.40751   1.38889   0.0000000000
O          O       0.59731   0.41504   1.38889   0.0000000000
C          C       0.68253   0.35139   1.38889   0.0000000000
N          N       0.56451   0.58008   1.38889   0.0000000000
N          N       0.60182   0.59355   1.38889   0.0000000000
O          O       0.62219   0.50065   1.38889   0.0000000000
H          H       0.27818   0.65654   1.38889   0.0000000000
H          H       0.47584   0.58815   1.38889   0.0000000000
H          H       0.47233   0.39125   1.38889   0.0000000000
H          H       0.44701   0.33031   1.38889   0.0000000000
C          C       0.55117   0.46099   1.38889   0.0000000000
C          C       0.51157   0.45114   1.38889   0.0000000000
C          C       0.42211   0.46970   1.38889   0.0000000000
C          C       0.45998   0.48776   1.38889   0.0000000000
C          C       0.40847   0.36020   1.38889   0.0000000000
C          C       0.35350   0.59249   1.38889   0.0000000000
O          O       0.40270   0.58496   1.38889   0.0000000000
C          C       0.31747   0.64862   1.38889   0.0000000000
N          N       0.43549   0.41992   1.38889   0.0000000000
N          N       0.39818   0.40645   1.38889   0.0000000000
O          O       0.37781   0.49935   1.38889   0.0000000000
H          H       0.01026   0.32412   1.14341   0.0000000000
H          H       0.07655   0.34656   1.64134   0.0000000000
H          H       0.98974   0.67588   1.14341   0.0000000000
H          H       0.92345   0.65344   1.64134   0.0000000000
H          H       0.98974   0.67588   1.63436   0.0000000000
H          H       0.92345   0.65344   1.13644   0.0000000000
H          H       0.01026   0.32412   1.63436   0.0000000000
H          H       0.07655   0.34656   1.13644   0.0000000000
H          H       0.93472   0.72182   1.38889   0.0000000000
H          H       0.06399   0.52416   1.38889   0.0000000000
H          H       0.86358   0.52767   1.38889   0.0000000000
H          H       0.77733   0.55299   1.38889   0.0000000000
C          C       0.01215   0.44884   1.38889   0.0000000000
C          C       0.96271   0.48843   1.38889   0.0000000000
C          C       0.89181   0.57789   1.38889   0.0000000000
C          C       0.94774   0.54002   1.38889   0.0000000000
C          C       0.76867   0.59153   1.38889   0.0000000000
C          C       0.94599   0.64650   1.38889   0.0000000000
O          O       0.98766   0.59731   1.38889   0.0000000000
C          C       0.96609   0.68253   1.38889   0.0000000000
N          N       0.85541   0.56451   1.38889   0.0000000000
N          N       0.80463   0.60182   1.38889   0.0000000000
O          O       0.87716   0.62219   1.38889   0.0000000000
H          H       0.06528   0.27818   1.38889   0.0000000000
H          H       0.93601   0.47584   1.38889   0.0000000000
H          H       0.13642   0.47233   1.38889   0.0000000000
H          H       0.22267   0.44701   1.38889   0.0000000000
C          C       0.98785   0.55117   1.38889   0.0000000000
C          C       0.03729   0.51157   1.38889   0.0000000000
C          C       0.10819   0.42211   1.38889   0.0000000000
C          C       0.05226   0.45998   1.38889   0.0000000000
C          C       0.23133   0.40847   1.38889   0.0000000000
C          C       0.05401   0.35350   1.38889   0.0000000000
O          O       0.01235   0.40270   1.38889   0.0000000000
C          C       0.03391   0.31747   1.38889   0.0000000000
N          N       0.14459   0.43549   1.38889   0.0000000000
N          N       0.19537   0.39818   1.38889   0.0000000000
O          O       0.12284   0.37781   1.38889   0.0000000000
H          H       0.66562   0.01026   1.14341   0.0000000000
H          H       0.57689   0.07655   1.64134   0.0000000000
H          H       0.33438   0.98974   1.14341   0.0000000000
H          H       0.42311   0.92345   1.64134   0.0000000000
H          H       0.33438   0.98974   1.63436   0.0000000000
H          H       0.42311   0.92345   1.13644   0.0000000000
H          H       0.66562   0.01026   1.63436   0.0000000000
H          H       0.57689   0.07655   1.13644   0.0000000000
H          H       0.34346   0.93472   1.38889   0.0000000000
H          H       0.41185   0.06399   1.38889   0.0000000000
H          H       0.60875   0.86358   1.38889   0.0000000000
H          H       0.66969   0.77733   1.38889   0.0000000000
C          C       0.53901   0.01215   1.38889   0.0000000000
C          C       0.54886   0.96271   1.38889   0.0000000000
C          C       0.53030   0.89181   1.38889   0.0000000000
C          C       0.51224   0.94774   1.38889   0.0000000000
C          C       0.63980   0.76867   1.38889   0.0000000000
C          C       0.40751   0.94599   1.38889   0.0000000000
O          O       0.41504   0.98766   1.38889   0.0000000000
C          C       0.35139   0.96609   1.38889   0.0000000000
N          N       0.58008   0.85541   1.38889   0.0000000000
N          N       0.59355   0.80463   1.38889   0.0000000000
O          O       0.50065   0.87716   1.38889   0.0000000000
H          H       0.65654   0.06528   1.38889   0.0000000000
H          H       0.58815   0.93601   1.38889   0.0000000000
H          H       0.39125   0.13642   1.38889   0.0000000000
H          H       0.33031   0.22267   1.38889   0.0000000000
C          C       0.46099   0.98785   1.38889   0.0000000000
C          C       0.45114   0.03729   1.38889   0.0000000000
C          C       0.46970   0.10819   1.38889   0.0000000000
C          C       0.48776   0.05226   1.38889   0.0000000000
C          C       0.36020   0.23133   1.38889   0.0000000000
C          C       0.59249   0.05401   1.38889   0.0000000000
O          O       0.58496   0.01235   1.38889   0.0000000000
C          C       0.64862   0.03391   1.38889   0.0000000000
N          N       0.41992   0.14459   1.38889   0.0000000000
N          N       0.40645   0.19537   1.38889   0.0000000000
O          O       0.49935   0.12284   1.38889   0.0000000000
C          C       0.68205   0.61400   1.38889   0.0000000000
C          C       0.62850   0.65095   1.38889   0.0000000000
O          O       0.69556   0.57038   1.38889   0.0000000000
C          C       0.61400   0.70395   1.38889   0.0000000000
C          C       0.65095   0.72056   1.38889   0.0000000000
O          O       0.57038   0.73406   1.38889   0.0000000000
C          C       0.70395   0.68205   1.38889   0.0000000000
C          C       0.72056   0.62850   1.38889   0.0000000000
O          O       0.73406   0.69556   1.38889   0.0000000000
C          C       0.31795   0.38600   1.38889   0.0000000000
C          C       0.37150   0.34906   1.38889   0.0000000000
O          O       0.30444   0.42962   1.38889   0.0000000000
C          C       0.38600   0.29606   1.38889   0.0000000000
C          C       0.34906   0.27944   1.38889   0.0000000000
O          O       0.42962   0.26594   1.38889   0.0000000000
C          C       0.29606   0.31795   1.38889   0.0000000000
C          C       0.27944   0.37150   1.38889   0.0000000000
O          O       0.26594   0.30444   1.38889   0.0000000000
