data_crystal

_cell_length_a    70.17000
_cell_length_b    30.10000
_cell_length_c    7.02000
_cell_angle_alpha 90.00000
_cell_angle_beta  90.00000
_cell_angle_gamma 90.00000

_space_group_name_Hall 'P 1'
_space_group_name_H-M_alt  'P 1'

loop_
_symmetry_equiv_pos_as_xyz
'x,y,z' 

loop_
_atom_site_label
_atom_site_type_symbol
_atom_site_fract_x
_atom_site_fract_y
_atom_site_fract_z
C          C       0.36284   0.25031   0.25000 
C          C       0.38229   0.23856   0.25000 
C          C       0.39665   0.27122   0.25000 
C          C       0.39208   0.31684   0.25000 
C          C       0.37261   0.32761   0.25000 
C          C       0.35870   0.29594   0.25000 
C          C       0.40747   0.35076   0.25000 
C          C       0.42667   0.33751   0.25000 
C          C       0.44128   0.36902   0.25000 
C          C       0.43691   0.41441   0.25000 
C          C       0.41788   0.42793   0.25000 
C          C       0.40329   0.39636   0.25000 
C          C       0.34791   0.21528   0.25000 
C          C       0.35312   0.17022   0.25000 
C          C       0.33924   0.13694   0.25000 
C          C       0.31993   0.14816   0.25000 
C          C       0.31457   0.19296   0.25000 
C          C       0.32846   0.22617   0.25000 
N          N       0.34063   0.31705   0.25000 
C          C       0.34505   0.36098   0.25000 
N          N       0.36400   0.37022   0.25000 
C          C       0.33041   0.39591   0.25000 
C          C       0.31104   0.38462   0.25000 
C          C       0.29713   0.41781   0.25000 
C          C       0.30247   0.46267   0.25000 
C          C       0.32179   0.47400   0.25000 
C          C       0.33570   0.44080   0.25000 
C          C       0.27318   0.08774   0.25000 
C          C       0.45194   0.44820   0.25000 
N          N       0.46981   0.43733   0.25000 
C          C       0.48490   0.46933   0.25000 
C          C       0.48120   0.51519   0.25000 
C          C       0.49624   0.54560   0.25000 
C          C       0.25403   0.10049   0.25000 
C          C       0.23964   0.06840   0.25000 
C          C       0.24430   0.02301   0.25000 
C          C       0.26345   0.01026   0.25000 
C          C       0.27784   0.04235   0.25000 
C          C       0.30566   0.11264   0.25000 
N          N       0.28757   0.12142   0.25000 
N          N       0.27010   0.48933   0.25000 
C          C       0.28818   0.49815   0.25000 
H          H       0.38631   0.20187   0.25000 
H          H       0.41229   0.26098   0.25000 
H          H       0.43026   0.30058   0.25000 
H          H       0.45679   0.35781   0.25000 
H          H       0.41421   0.46482   0.25000 
H          H       0.38777   0.40751   0.25000 
H          H       0.36887   0.16094   0.25000 
H          H       0.34367   0.10050   0.25000 
H          H       0.29884   0.20239   0.25000 
H          H       0.32406   0.26262   0.25000 
H          H       0.32549   0.30639   0.25000 
H          H       0.30665   0.34815   0.25000 
H          H       0.28139   0.40844   0.25000 
H          H       0.32623   0.51043   0.25000 
H          H       0.35144   0.45017   0.25000 
H          H       0.44802   0.48495   0.25000 
H          H       0.46587   0.52775   0.25000 
H          H       0.49316   0.58278   0.25000 
H          H       0.25017   0.13727   0.25000 
H          H       0.22405   0.07900   0.25000 
H          H       0.26740   0.97353   0.25000 
H          H       0.29343   0.03175   0.25000 
H          H       0.31037   0.07640   0.25000 
H          H       0.29287   0.53440   0.25000 
C          C       0.63716   0.74969   0.25000 
C          C       0.61771   0.76144   0.25000 
C          C       0.60335   0.72878   0.25000 
C          C       0.60792   0.68316   0.25000 
C          C       0.62739   0.67239   0.25000 
C          C       0.64130   0.70406   0.25000 
C          C       0.59253   0.64924   0.25000 
C          C       0.57333   0.66249   0.25000 
C          C       0.55872   0.63098   0.25000 
C          C       0.56309   0.58559   0.25000 
C          C       0.58212   0.57207   0.25000 
C          C       0.59671   0.60364   0.25000 
C          C       0.65209   0.78472   0.25000 
C          C       0.64688   0.82978   0.25000 
C          C       0.66076   0.86306   0.25000 
C          C       0.68007   0.85184   0.25000 
C          C       0.68543   0.80704   0.25000 
C          C       0.67154   0.77383   0.25000 
N          N       0.65937   0.68295   0.25000 
C          C       0.65495   0.63902   0.25000 
N          N       0.63600   0.62978   0.25000 
C          C       0.66959   0.60409   0.25000 
C          C       0.68896   0.61538   0.25000 
C          C       0.70287   0.58219   0.25000 
C          C       0.69753   0.53733   0.25000 
C          C       0.67821   0.52600   0.25000 
C          C       0.66430   0.55920   0.25000 
C          C       0.72682   0.91226   0.25000 
C          C       0.54806   0.55180   0.25000 
N          N       0.53019   0.56267   0.25000 
C          C       0.51510   0.53067   0.25000 
C          C       0.51880   0.48481   0.25000 
C          C       0.50376   0.45440   0.25000 
C          C       0.74597   0.89951   0.25000 
C          C       0.76036   0.93160   0.25000 
C          C       0.75570   0.97699   0.25000 
C          C       0.73655   0.98974   0.25000 
C          C       0.72216   0.95765   0.25000 
C          C       0.69434   0.88736   0.25000 
N          N       0.71243   0.87858   0.25000 
N          N       0.72990   0.51067   0.25000 
C          C       0.71182   0.50185   0.25000 
H          H       0.61369   0.79813   0.25000 
H          H       0.58771   0.73902   0.25000 
H          H       0.56974   0.69942   0.25000 
H          H       0.54321   0.64219   0.25000 
H          H       0.58579   0.53518   0.25000 
H          H       0.61223   0.59249   0.25000 
H          H       0.63113   0.83906   0.25000 
H          H       0.65633   0.89950   0.25000 
H          H       0.70116   0.79761   0.25000 
H          H       0.67594   0.73738   0.25000 
H          H       0.67451   0.69361   0.25000 
H          H       0.69335   0.65185   0.25000 
H          H       0.71861   0.59156   0.25000 
H          H       0.67377   0.48957   0.25000 
H          H       0.64856   0.54983   0.25000 
H          H       0.55198   0.51505   0.25000 
H          H       0.53413   0.47225   0.25000 
H          H       0.50684   0.41722   0.25000 
H          H       0.74983   0.86273   0.25000 
H          H       0.77595   0.92100   0.25000 
H          H       0.73260   0.02647   0.25000 
H          H       0.70657   0.96825   0.25000 
H          H       0.68963   0.92360   0.25000 
H          H       0.70713   0.46560   0.25000 
C          C       0.13716   0.75031   0.25000 
C          C       0.11771   0.73856   0.25000 
C          C       0.10335   0.77122   0.25000 
C          C       0.10792   0.81684   0.25000 
C          C       0.12739   0.82761   0.25000 
C          C       0.14130   0.79594   0.25000 
C          C       0.09253   0.85076   0.25000 
C          C       0.07333   0.83751   0.25000 
C          C       0.05872   0.86902   0.25000 
C          C       0.06309   0.91441   0.25000 
C          C       0.08212   0.92793   0.25000 
C          C       0.09671   0.89636   0.25000 
C          C       0.15209   0.71528   0.25000 
C          C       0.14688   0.67022   0.25000 
C          C       0.16076   0.63694   0.25000 
C          C       0.18007   0.64816   0.25000 
C          C       0.18543   0.69296   0.25000 
C          C       0.17154   0.72617   0.25000 
N          N       0.15937   0.81705   0.25000 
C          C       0.15495   0.86098   0.25000 
N          N       0.13600   0.87022   0.25000 
C          C       0.16959   0.89591   0.25000 
C          C       0.18896   0.88462   0.25000 
C          C       0.20287   0.91781   0.25000 
C          C       0.19753   0.96267   0.25000 
C          C       0.17821   0.97400   0.25000 
C          C       0.16430   0.94080   0.25000 
C          C       0.22682   0.58774   0.25000 
C          C       0.04806   0.94820   0.25000 
N          N       0.03019   0.93733   0.25000 
C          C       0.01510   0.96933   0.25000 
C          C       0.01880   0.01519   0.25000 
C          C       0.00376   0.04560   0.25000 
C          C       0.24597   0.60049   0.25000 
C          C       0.26036   0.56840   0.25000 
C          C       0.25570   0.52301   0.25000 
C          C       0.23655   0.51026   0.25000 
C          C       0.22216   0.54235   0.25000 
C          C       0.19434   0.61264   0.25000 
N          N       0.21243   0.62142   0.25000 
N          N       0.22990   0.98933   0.25000 
C          C       0.21182   0.99815   0.25000 
H          H       0.11369   0.70187   0.25000 
H          H       0.08771   0.76098   0.25000 
H          H       0.06974   0.80058   0.25000 
H          H       0.04321   0.85781   0.25000 
H          H       0.08579   0.96482   0.25000 
H          H       0.11223   0.90751   0.25000 
H          H       0.13113   0.66094   0.25000 
H          H       0.15633   0.60050   0.25000 
H          H       0.20116   0.70239   0.25000 
H          H       0.17594   0.76262   0.25000 
H          H       0.17451   0.80639   0.25000 
H          H       0.19335   0.84815   0.25000 
H          H       0.21861   0.90844   0.25000 
H          H       0.17377   0.01043   0.25000 
H          H       0.14856   0.95017   0.25000 
H          H       0.05198   0.98495   0.25000 
H          H       0.03413   0.02775   0.25000 
H          H       0.00684   0.08278   0.25000 
H          H       0.24983   0.63727   0.25000 
H          H       0.27595   0.57900   0.25000 
H          H       0.23260   0.47353   0.25000 
H          H       0.20657   0.53175   0.25000 
H          H       0.18963   0.57640   0.25000 
H          H       0.20713   0.03440   0.25000 
C          C       0.86284   0.24969   0.25000 
C          C       0.88229   0.26144   0.25000 
C          C       0.89665   0.22878   0.25000 
C          C       0.89208   0.18316   0.25000 
C          C       0.87261   0.17239   0.25000 
C          C       0.85870   0.20406   0.25000 
C          C       0.90747   0.14924   0.25000 
C          C       0.92667   0.16249   0.25000 
C          C       0.94128   0.13098   0.25000 
C          C       0.93691   0.08559   0.25000 
C          C       0.91788   0.07207   0.25000 
C          C       0.90329   0.10364   0.25000 
C          C       0.84791   0.28472   0.25000 
C          C       0.85312   0.32978   0.25000 
C          C       0.83924   0.36306   0.25000 
C          C       0.81993   0.35184   0.25000 
C          C       0.81457   0.30704   0.25000 
C          C       0.82846   0.27383   0.25000 
N          N       0.84063   0.18295   0.25000 
C          C       0.84505   0.13902   0.25000 
N          N       0.86400   0.12978   0.25000 
C          C       0.83041   0.10409   0.25000 
C          C       0.81104   0.11538   0.25000 
C          C       0.79713   0.08219   0.25000 
C          C       0.80247   0.03733   0.25000 
C          C       0.82179   0.02600   0.25000 
C          C       0.83570   0.05920   0.25000 
C          C       0.77318   0.41226   0.25000 
C          C       0.95194   0.05180   0.25000 
N          N       0.96981   0.06267   0.25000 
C          C       0.98490   0.03067   0.25000 
C          C       0.98120   0.98481   0.25000 
C          C       0.99624   0.95440   0.25000 
C          C       0.75403   0.39951   0.25000 
C          C       0.73964   0.43160   0.25000 
C          C       0.74430   0.47699   0.25000 
C          C       0.76345   0.48974   0.25000 
C          C       0.77784   0.45765   0.25000 
C          C       0.80566   0.38736   0.25000 
N          N       0.78757   0.37858   0.25000 
N          N       0.77010   0.01067   0.25000 
C          C       0.78818   0.00185   0.25000 
H          H       0.88631   0.29813   0.25000 
H          H       0.91229   0.23902   0.25000 
H          H       0.93026   0.19942   0.25000 
H          H       0.95679   0.14219   0.25000 
H          H       0.91421   0.03518   0.25000 
H          H       0.88777   0.09249   0.25000 
H          H       0.86887   0.33906   0.25000 
H          H       0.84367   0.39950   0.25000 
H          H       0.79884   0.29761   0.25000 
H          H       0.82406   0.23738   0.25000 
H          H       0.82549   0.19361   0.25000 
H          H       0.80665   0.15185   0.25000 
H          H       0.78139   0.09156   0.25000 
H          H       0.82623   0.98957   0.25000 
H          H       0.85144   0.04983   0.25000 
H          H       0.94802   0.01505   0.25000 
H          H       0.96587   0.97225   0.25000 
H          H       0.99316   0.91722   0.25000 
H          H       0.75017   0.36273   0.25000 
H          H       0.72405   0.42100   0.25000 
H          H       0.76740   0.52647   0.25000 
H          H       0.79343   0.46825   0.25000 
H          H       0.81037   0.42360   0.25000 
H          H       0.79287   0.96560   0.25000 
C          C       0.36284   0.25031   0.75000 
C          C       0.38229   0.23856   0.75000 
C          C       0.39665   0.27122   0.75000 
C          C       0.39208   0.31684   0.75000 
C          C       0.37261   0.32761   0.75000 
C          C       0.35870   0.29594   0.75000 
C          C       0.40747   0.35076   0.75000 
C          C       0.42667   0.33751   0.75000 
C          C       0.44128   0.36902   0.75000 
C          C       0.43691   0.41441   0.75000 
C          C       0.41788   0.42793   0.75000 
C          C       0.40329   0.39636   0.75000 
C          C       0.34791   0.21528   0.75000 
C          C       0.35312   0.17022   0.75000 
C          C       0.33924   0.13694   0.75000 
C          C       0.31993   0.14816   0.75000 
C          C       0.31457   0.19296   0.75000 
C          C       0.32846   0.22617   0.75000 
N          N       0.34063   0.31705   0.75000 
C          C       0.34505   0.36098   0.75000 
N          N       0.36400   0.37022   0.75000 
C          C       0.33041   0.39591   0.75000 
C          C       0.31104   0.38462   0.75000 
C          C       0.29713   0.41781   0.75000 
C          C       0.30247   0.46267   0.75000 
C          C       0.32179   0.47400   0.75000 
C          C       0.33570   0.44080   0.75000 
C          C       0.27318   0.08774   0.75000 
C          C       0.45194   0.44820   0.75000 
N          N       0.46981   0.43733   0.75000 
C          C       0.48490   0.46933   0.75000 
C          C       0.48120   0.51519   0.75000 
C          C       0.49624   0.54560   0.75000 
C          C       0.25403   0.10049   0.75000 
C          C       0.23964   0.06840   0.75000 
C          C       0.24430   0.02301   0.75000 
C          C       0.26345   0.01026   0.75000 
C          C       0.27784   0.04235   0.75000 
C          C       0.30566   0.11264   0.75000 
N          N       0.28757   0.12142   0.75000 
N          N       0.27010   0.48933   0.75000 
C          C       0.28818   0.49815   0.75000 
H          H       0.38631   0.20187   0.75000 
H          H       0.41229   0.26098   0.75000 
H          H       0.43026   0.30058   0.75000 
H          H       0.45679   0.35781   0.75000 
H          H       0.41421   0.46482   0.75000 
H          H       0.38777   0.40751   0.75000 
H          H       0.36887   0.16094   0.75000 
H          H       0.34367   0.10050   0.75000 
H          H       0.29884   0.20239   0.75000 
H          H       0.32406   0.26262   0.75000 
H          H       0.32549   0.30639   0.75000 
H          H       0.30665   0.34815   0.75000 
H          H       0.28139   0.40844   0.75000 
H          H       0.32623   0.51043   0.75000 
H          H       0.35144   0.45017   0.75000 
H          H       0.44802   0.48495   0.75000 
H          H       0.46587   0.52775   0.75000 
H          H       0.49316   0.58278   0.75000 
H          H       0.25017   0.13727   0.75000 
H          H       0.22405   0.07900   0.75000 
H          H       0.26740   0.97353   0.75000 
H          H       0.29343   0.03175   0.75000 
H          H       0.31037   0.07640   0.75000 
H          H       0.29287   0.53440   0.75000 
C          C       0.63716   0.74969   0.75000 
C          C       0.61771   0.76144   0.75000 
C          C       0.60335   0.72878   0.75000 
C          C       0.60792   0.68316   0.75000 
C          C       0.62739   0.67239   0.75000 
C          C       0.64130   0.70406   0.75000 
C          C       0.59253   0.64924   0.75000 
C          C       0.57333   0.66249   0.75000 
C          C       0.55872   0.63098   0.75000 
C          C       0.56309   0.58559   0.75000 
C          C       0.58212   0.57207   0.75000 
C          C       0.59671   0.60364   0.75000 
C          C       0.65209   0.78472   0.75000 
C          C       0.64688   0.82978   0.75000 
C          C       0.66076   0.86306   0.75000 
C          C       0.68007   0.85184   0.75000 
C          C       0.68543   0.80704   0.75000 
C          C       0.67154   0.77383   0.75000 
N          N       0.65937   0.68295   0.75000 
C          C       0.65495   0.63902   0.75000 
N          N       0.63600   0.62978   0.75000 
C          C       0.66959   0.60409   0.75000 
C          C       0.68896   0.61538   0.75000 
C          C       0.70287   0.58219   0.75000 
C          C       0.69753   0.53733   0.75000 
C          C       0.67821   0.52600   0.75000 
C          C       0.66430   0.55920   0.75000 
C          C       0.72682   0.91226   0.75000 
C          C       0.54806   0.55180   0.75000 
N          N       0.53019   0.56267   0.75000 
C          C       0.51510   0.53067   0.75000 
C          C       0.51880   0.48481   0.75000 
C          C       0.50376   0.45440   0.75000 
C          C       0.74597   0.89951   0.75000 
C          C       0.76036   0.93160   0.75000 
C          C       0.75570   0.97699   0.75000 
C          C       0.73655   0.98974   0.75000 
C          C       0.72216   0.95765   0.75000 
C          C       0.69434   0.88736   0.75000 
N          N       0.71243   0.87858   0.75000 
N          N       0.72990   0.51067   0.75000 
C          C       0.71182   0.50185   0.75000 
H          H       0.61369   0.79813   0.75000 
H          H       0.58771   0.73902   0.75000 
H          H       0.56974   0.69942   0.75000 
H          H       0.54321   0.64219   0.75000 
H          H       0.58579   0.53518   0.75000 
H          H       0.61223   0.59249   0.75000 
H          H       0.63113   0.83906   0.75000 
H          H       0.65633   0.89950   0.75000 
H          H       0.70116   0.79761   0.75000 
H          H       0.67594   0.73738   0.75000 
H          H       0.67451   0.69361   0.75000 
H          H       0.69335   0.65185   0.75000 
H          H       0.71861   0.59156   0.75000 
H          H       0.67377   0.48957   0.75000 
H          H       0.64856   0.54983   0.75000 
H          H       0.55198   0.51505   0.75000 
H          H       0.53413   0.47225   0.75000 
H          H       0.50684   0.41722   0.75000 
H          H       0.74983   0.86273   0.75000 
H          H       0.77595   0.92100   0.75000 
H          H       0.73260   0.02647   0.75000 
H          H       0.70657   0.96825   0.75000 
H          H       0.68963   0.92360   0.75000 
H          H       0.70713   0.46560   0.75000 
C          C       0.13716   0.75031   0.75000 
C          C       0.11771   0.73856   0.75000 
C          C       0.10335   0.77122   0.75000 
C          C       0.10792   0.81684   0.75000 
C          C       0.12739   0.82761   0.75000 
C          C       0.14130   0.79594   0.75000 
C          C       0.09253   0.85076   0.75000 
C          C       0.07333   0.83751   0.75000 
C          C       0.05872   0.86902   0.75000 
C          C       0.06309   0.91441   0.75000 
C          C       0.08212   0.92793   0.75000 
C          C       0.09671   0.89636   0.75000 
C          C       0.15209   0.71528   0.75000 
C          C       0.14688   0.67022   0.75000 
C          C       0.16076   0.63694   0.75000 
C          C       0.18007   0.64816   0.75000 
C          C       0.18543   0.69296   0.75000 
C          C       0.17154   0.72617   0.75000 
N          N       0.15937   0.81705   0.75000 
C          C       0.15495   0.86098   0.75000 
N          N       0.13600   0.87022   0.75000 
C          C       0.16959   0.89591   0.75000 
C          C       0.18896   0.88462   0.75000 
C          C       0.20287   0.91781   0.75000 
C          C       0.19753   0.96267   0.75000 
C          C       0.17821   0.97400   0.75000 
C          C       0.16430   0.94080   0.75000 
C          C       0.22682   0.58774   0.75000 
C          C       0.04806   0.94820   0.75000 
N          N       0.03019   0.93733   0.75000 
C          C       0.01510   0.96933   0.75000 
C          C       0.01880   0.01519   0.75000 
C          C       0.00376   0.04560   0.75000 
C          C       0.24597   0.60049   0.75000 
C          C       0.26036   0.56840   0.75000 
C          C       0.25570   0.52301   0.75000 
C          C       0.23655   0.51026   0.75000 
C          C       0.22216   0.54235   0.75000 
C          C       0.19434   0.61264   0.75000 
N          N       0.21243   0.62142   0.75000 
N          N       0.22990   0.98933   0.75000 
C          C       0.21182   0.99815   0.75000 
H          H       0.11369   0.70187   0.75000 
H          H       0.08771   0.76098   0.75000 
H          H       0.06974   0.80058   0.75000 
H          H       0.04321   0.85781   0.75000 
H          H       0.08579   0.96482   0.75000 
H          H       0.11223   0.90751   0.75000 
H          H       0.13113   0.66094   0.75000 
H          H       0.15633   0.60050   0.75000 
H          H       0.20116   0.70239   0.75000 
H          H       0.17594   0.76262   0.75000 
H          H       0.17451   0.80639   0.75000 
H          H       0.19335   0.84815   0.75000 
H          H       0.21861   0.90844   0.75000 
H          H       0.17377   0.01043   0.75000 
H          H       0.14856   0.95017   0.75000 
H          H       0.05198   0.98495   0.75000 
H          H       0.03413   0.02775   0.75000 
H          H       0.00684   0.08278   0.75000 
H          H       0.24983   0.63727   0.75000 
H          H       0.27595   0.57900   0.75000 
H          H       0.23260   0.47353   0.75000 
H          H       0.20657   0.53175   0.75000 
H          H       0.18963   0.57640   0.75000 
H          H       0.20713   0.03440   0.75000 
C          C       0.86284   0.24969   0.75000 
C          C       0.88229   0.26144   0.75000 
C          C       0.89665   0.22878   0.75000 
C          C       0.89208   0.18316   0.75000 
C          C       0.87261   0.17239   0.75000 
C          C       0.85870   0.20406   0.75000 
C          C       0.90747   0.14924   0.75000 
C          C       0.92667   0.16249   0.75000 
C          C       0.94128   0.13098   0.75000 
C          C       0.93691   0.08559   0.75000 
C          C       0.91788   0.07207   0.75000 
C          C       0.90329   0.10364   0.75000 
C          C       0.84791   0.28472   0.75000 
C          C       0.85312   0.32978   0.75000 
C          C       0.83924   0.36306   0.75000 
C          C       0.81993   0.35184   0.75000 
C          C       0.81457   0.30704   0.75000 
C          C       0.82846   0.27383   0.75000 
N          N       0.84063   0.18295   0.75000 
C          C       0.84505   0.13902   0.75000 
N          N       0.86400   0.12978   0.75000 
C          C       0.83041   0.10409   0.75000 
C          C       0.81104   0.11538   0.75000 
C          C       0.79713   0.08219   0.75000 
C          C       0.80247   0.03733   0.75000 
C          C       0.82179   0.02600   0.75000 
C          C       0.83570   0.05920   0.75000 
C          C       0.77318   0.41226   0.75000 
C          C       0.95194   0.05180   0.75000 
N          N       0.96981   0.06267   0.75000 
C          C       0.98490   0.03067   0.75000 
C          C       0.98120   0.98481   0.75000 
C          C       0.99624   0.95440   0.75000 
C          C       0.75403   0.39951   0.75000 
C          C       0.73964   0.43160   0.75000 
C          C       0.74430   0.47699   0.75000 
C          C       0.76345   0.48974   0.75000 
C          C       0.77784   0.45765   0.75000 
C          C       0.80566   0.38736   0.75000 
N          N       0.78757   0.37858   0.75000 
N          N       0.77010   0.01067   0.75000 
C          C       0.78818   0.00185   0.75000 
H          H       0.88631   0.29813   0.75000 
H          H       0.91229   0.23902   0.75000 
H          H       0.93026   0.19942   0.75000 
H          H       0.95679   0.14219   0.75000 
H          H       0.91421   0.03518   0.75000 
H          H       0.88777   0.09249   0.75000 
H          H       0.86887   0.33906   0.75000 
H          H       0.84367   0.39950   0.75000 
H          H       0.79884   0.29761   0.75000 
H          H       0.82406   0.23738   0.75000 
H          H       0.82549   0.19361   0.75000 
H          H       0.80665   0.15185   0.75000 
H          H       0.78139   0.09156   0.75000 
H          H       0.82623   0.98957   0.75000 
H          H       0.85144   0.04983   0.75000 
H          H       0.94802   0.01505   0.75000 
H          H       0.96587   0.97225   0.75000 
H          H       0.99316   0.91722   0.75000 
H          H       0.75017   0.36273   0.75000 
H          H       0.72405   0.42100   0.75000 
H          H       0.76740   0.52647   0.75000 
H          H       0.79343   0.46825   0.75000 
H          H       0.81037   0.42360   0.75000 
H          H       0.79287   0.96560   0.75000 
