data_crystal
 
_cell_length_a    6.91000
_cell_length_b    45.27000
_cell_length_c    42.66000
_cell_angle_alpha 90.00000
_cell_angle_beta  90.00000
_cell_angle_gamma 90.00000
 
_symmetry_space_group_name_Hall 'P 1'
_symmetry_space_group_name_H-M  'P 1'
 
loop_
_symmetry_equiv_pos_as_xyz
 'x,y,z' 
 
loop_
_atom_site_label
_atom_site_type_symbol
_atom_site_fract_x
_atom_site_fract_y
_atom_site_fract_z
_atom_site_charge
N          N       0.75000   0.27844   0.26805   0.0000000000
N          N       0.75000   0.28377   0.21494   0.0000000000
N          N       0.75000   0.22334   0.69879   0.0000000000
N          N       0.75000   0.21802   0.75191   0.0000000000
N          N       0.75000   0.06240   0.73602   0.0000000000
N          N       0.75000   0.43738   0.27991   0.0000000000
N          N       0.75000   0.25956   0.54883   0.0000000000
N          N       0.75000   0.23296   0.04702   0.0000000000
N          N       0.75000   0.26876   0.91977   0.0000000000
N          N       0.75000   0.24247   0.41786   0.0000000000
C          C       0.75000   0.25005   0.25389   0.0000000000
C          C       0.75000   0.22232   0.26848   0.0000000000
C          C       0.75000   0.19741   0.24852   0.0000000000
C          C       0.75000   0.25326   0.22232   0.0000000000
C          C       0.75000   0.22921   0.20170   0.0000000000
C          C       0.75000   0.20082   0.21549   0.0000000000
C          C       0.75000   0.29709   0.24330   0.0000000000
C          C       0.75000   0.25173   0.71295   0.0000000000
C          C       0.75000   0.27945   0.69834   0.0000000000
C          C       0.75000   0.24853   0.74452   0.0000000000
C          C       0.75000   0.30098   0.75134   0.0000000000
C          C       0.75000   0.03092   0.73504   0.0000000000
C          C       0.75000   0.20470   0.72355   0.0000000000
C          C       0.75000   0.27260   0.76513   0.0000000000
C          C       0.75000   0.30437   0.71831   0.0000000000
C          C       0.75000   0.21969   0.30318   0.0000000000
C          C       0.75000   0.28208   0.66361   0.0000000000
C          C       0.75000   0.28470   0.56340   0.0000000000
C          C       0.75000   0.26807   0.79965   0.0000000000
C          C       0.75000   0.23374   0.16717   0.0000000000
C          C       0.75000   0.17257   0.72013   0.0000000000
C          C       0.75000   0.32922   0.24671   0.0000000000
C          C       0.75000   0.34235   0.27647   0.0000000000
C          C       0.75000   0.37310   0.27928   0.0000000000
C          C       0.75000   0.39071   0.25227   0.0000000000
C          C       0.75000   0.37759   0.22268   0.0000000000
C          C       0.75000   0.34697   0.21989   0.0000000000
C          C       0.75000   0.42283   0.25377   0.0000000000
C          C       0.75000   0.25577   0.51571   0.0000000000
C          C       0.75000   0.22700   0.50379   0.0000000000
C          C       0.75000   0.22219   0.47152   0.0000000000
C          C       0.75000   0.24631   0.45097   0.0000000000
C          C       0.75000   0.27509   0.46289   0.0000000000
C          C       0.75000   0.27990   0.49517   0.0000000000
C          C       0.75000   0.24216   0.01495   0.0000000000
C          C       0.75000   0.22081   0.99140   0.0000000000
C          C       0.75000   0.22941   0.96002   0.0000000000
C          C       0.75000   0.25955   0.95183   0.0000000000
C          C       0.75000   0.28089   0.97538   0.0000000000
C          C       0.75000   0.27229   0.00676   0.0000000000
C          C       0.75000   0.24461   0.10235   0.0000000000
C          C       0.75000   0.15480   0.74693   0.0000000000
C          C       0.75000   0.12419   0.74408   0.0000000000
C          C       0.75000   0.11105   0.71436   0.0000000000
C          C       0.75000   0.12873   0.68751   0.0000000000
C          C       0.75000   0.15947   0.69037   0.0000000000
C          C       0.75000   0.07893   0.71126   0.0000000000
C          C       0.75000   0.21001   0.14591   0.0000000000
C          C       0.75000   0.21542   0.11349   0.0000000000
C          C       0.75000   0.26801   0.12330   0.0000000000
C          C       0.75000   0.26257   0.15519   0.0000000000
C          C       0.75000   0.29180   0.82090   0.0000000000
C          C       0.75000   0.28637   0.85332   0.0000000000
C          C       0.75000   0.25716   0.86444   0.0000000000
C          C       0.75000   0.23378   0.84349   0.0000000000
C          C       0.75000   0.23924   0.81161   0.0000000000
C          C       0.75000   0.24943   0.89752   0.0000000000
C          C       0.75000   0.25231   0.06926   0.0000000000
C          C       0.75000   0.19225   0.31864   0.0000000000
C          C       0.75000   0.19107   0.35159   0.0000000000
C          C       0.75000   0.21732   0.36906   0.0000000000
C          C       0.75000   0.24441   0.35358   0.0000000000
C          C       0.75000   0.24545   0.32129   0.0000000000
C          C       0.75000   0.21729   0.40336   0.0000000000
C          C       0.75000   0.30953   0.64817   0.0000000000
C          C       0.75000   0.31076   0.61523   0.0000000000
C          C       0.75000   0.28455   0.59770   0.0000000000
C          C       0.75000   0.25743   0.61314   0.0000000000
C          C       0.75000   0.25634   0.64546   0.0000000000
C          C       0.75000   0.46899   0.27984   0.0000000000
C          C       0.75000   0.48452   0.30823   0.0000000000
C          C       0.75000   0.48468   0.25149   0.0000000000
C          C       0.75000   0.01541   0.70654   0.0000000000
C          C       0.75000   0.01539   0.76332   0.0000000000
H          H       0.75000   0.28050   0.29398   0.0000000000
H          H       0.75000   0.21079   0.77677   0.0000000000
H          H       0.75000   0.17422   0.25893   0.0000000000
H          H       0.75000   0.18051   0.19968   0.0000000000
H          H       0.75000   0.32151   0.76682   0.0000000000
H          H       0.75000   0.32756   0.70789   0.0000000000
H          H       0.75000   0.30620   0.54949   0.0000000000
H          H       0.75000   0.32794   0.29839   0.0000000000
H          H       0.75000   0.38378   0.30348   0.0000000000
H          H       0.75000   0.39196   0.20074   0.0000000000
H          H       0.75000   0.33636   0.19565   0.0000000000
H          H       0.75000   0.43520   0.23049   0.0000000000
H          H       0.75000   0.20734   0.52048   0.0000000000
H          H       0.75000   0.19869   0.46193   0.0000000000
H          H       0.75000   0.29475   0.44619   0.0000000000
H          H       0.75000   0.30336   0.50486   0.0000000000
H          H       0.75000   0.19637   0.99781   0.0000000000
H          H       0.75000   0.21199   0.94073   0.0000000000
H          H       0.75000   0.30534   0.96897   0.0000000000
H          H       0.75000   0.28990   0.02586   0.0000000000
H          H       0.75000   0.16538   0.77118   0.0000000000
H          H       0.75000   0.10974   0.76597   0.0000000000
H          H       0.75000   0.11807   0.66330   0.0000000000
H          H       0.75000   0.17390   0.66847   0.0000000000
H          H       0.75000   0.06841   0.68698   0.0000000000
H          H       0.75000   0.18632   0.15498   0.0000000000
H          H       0.75000   0.19619   0.09623   0.0000000000
H          H       0.75000   0.29170   0.11422   0.0000000000
H          H       0.75000   0.28225   0.17188   0.0000000000
H          H       0.75000   0.31549   0.81183   0.0000000000
H          H       0.75000   0.30564   0.87053   0.0000000000
H          H       0.75000   0.21009   0.85255   0.0000000000
H          H       0.75000   0.21957   0.79492   0.0000000000
H          H       0.75000   0.22487   0.90338   0.0000000000
H          H       0.75000   0.27687   0.06338   0.0000000000
H          H       0.75000   0.17090   0.30447   0.0000000000
H          H       0.75000   0.16880   0.36406   0.0000000000
H          H       0.75000   0.26583   0.36763   0.0000000000
H          H       0.75000   0.26798   0.30937   0.0000000000
H          H       0.75000   0.19582   0.41734   0.0000000000
H          H       0.75000   0.33087   0.66237   0.0000000000
H          H       0.75000   0.33305   0.60279   0.0000000000
H          H       0.75000   0.23603   0.59905   0.0000000000
H          H       0.75000   0.23378   0.65733   0.0000000000
H          H       0.75000   0.47199   0.33140   0.0000000000
H          H       0.75000   0.47226   0.22824   0.0000000000
H          H       0.75000   0.02799   0.68340   0.0000000000
H          H       0.75000   0.02790   0.78652   0.0000000000
N          N       0.75000   0.72156   0.26805   0.0000000000
N          N       0.75000   0.71623   0.21494   0.0000000000
N          N       0.75000   0.77666   0.69879   0.0000000000
N          N       0.75000   0.78198   0.75191   0.0000000000
N          N       0.75000   0.93760   0.73602   0.0000000000
N          N       0.75000   0.56262   0.27991   0.0000000000
N          N       0.75000   0.74044   0.54883   0.0000000000
N          N       0.75000   0.76704   0.04702   0.0000000000
N          N       0.75000   0.73124   0.91977   0.0000000000
N          N       0.75000   0.75753   0.41786   0.0000000000
C          C       0.75000   0.74995   0.25389   0.0000000000
C          C       0.75000   0.77768   0.26848   0.0000000000
C          C       0.75000   0.80259   0.24852   0.0000000000
C          C       0.75000   0.74674   0.22232   0.0000000000
C          C       0.75000   0.77079   0.20170   0.0000000000
C          C       0.75000   0.79918   0.21549   0.0000000000
C          C       0.75000   0.70291   0.24330   0.0000000000
C          C       0.75000   0.74827   0.71295   0.0000000000
C          C       0.75000   0.72055   0.69834   0.0000000000
C          C       0.75000   0.75147   0.74452   0.0000000000
C          C       0.75000   0.69902   0.75134   0.0000000000
C          C       0.75000   0.96908   0.73504   0.0000000000
C          C       0.75000   0.79530   0.72355   0.0000000000
C          C       0.75000   0.72740   0.76513   0.0000000000
C          C       0.75000   0.69563   0.71831   0.0000000000
C          C       0.75000   0.78031   0.30318   0.0000000000
C          C       0.75000   0.71792   0.66361   0.0000000000
C          C       0.75000   0.71530   0.56340   0.0000000000
C          C       0.75000   0.73193   0.79965   0.0000000000
C          C       0.75000   0.76626   0.16717   0.0000000000
C          C       0.75000   0.82743   0.72013   0.0000000000
C          C       0.75000   0.67078   0.24671   0.0000000000
C          C       0.75000   0.65765   0.27647   0.0000000000
C          C       0.75000   0.62690   0.27928   0.0000000000
C          C       0.75000   0.60929   0.25227   0.0000000000
C          C       0.75000   0.62241   0.22268   0.0000000000
C          C       0.75000   0.65303   0.21989   0.0000000000
C          C       0.75000   0.57717   0.25377   0.0000000000
C          C       0.75000   0.74423   0.51571   0.0000000000
C          C       0.75000   0.77300   0.50379   0.0000000000
C          C       0.75000   0.77781   0.47152   0.0000000000
C          C       0.75000   0.75369   0.45097   0.0000000000
C          C       0.75000   0.72491   0.46289   0.0000000000
C          C       0.75000   0.72010   0.49517   0.0000000000
C          C       0.75000   0.75784   0.01495   0.0000000000
C          C       0.75000   0.77919   0.99140   0.0000000000
C          C       0.75000   0.77059   0.96002   0.0000000000
C          C       0.75000   0.74045   0.95183   0.0000000000
C          C       0.75000   0.71911   0.97538   0.0000000000
C          C       0.75000   0.72771   0.00676   0.0000000000
C          C       0.75000   0.75539   0.10235   0.0000000000
C          C       0.75000   0.84520   0.74693   0.0000000000
C          C       0.75000   0.87581   0.74408   0.0000000000
C          C       0.75000   0.88895   0.71436   0.0000000000
C          C       0.75000   0.87127   0.68751   0.0000000000
C          C       0.75000   0.84053   0.69037   0.0000000000
C          C       0.75000   0.92107   0.71126   0.0000000000
C          C       0.75000   0.78999   0.14591   0.0000000000
C          C       0.75000   0.78458   0.11349   0.0000000000
C          C       0.75000   0.73199   0.12330   0.0000000000
C          C       0.75000   0.73743   0.15519   0.0000000000
C          C       0.75000   0.70820   0.82090   0.0000000000
C          C       0.75000   0.71363   0.85332   0.0000000000
C          C       0.75000   0.74284   0.86444   0.0000000000
C          C       0.75000   0.76622   0.84349   0.0000000000
C          C       0.75000   0.76076   0.81161   0.0000000000
C          C       0.75000   0.75057   0.89752   0.0000000000
C          C       0.75000   0.74769   0.06926   0.0000000000
C          C       0.75000   0.80775   0.31864   0.0000000000
C          C       0.75000   0.80893   0.35159   0.0000000000
C          C       0.75000   0.78268   0.36906   0.0000000000
C          C       0.75000   0.75559   0.35358   0.0000000000
C          C       0.75000   0.75455   0.32129   0.0000000000
C          C       0.75000   0.78271   0.40336   0.0000000000
C          C       0.75000   0.69047   0.64817   0.0000000000
C          C       0.75000   0.68924   0.61523   0.0000000000
C          C       0.75000   0.71545   0.59770   0.0000000000
C          C       0.75000   0.74257   0.61314   0.0000000000
C          C       0.75000   0.74366   0.64546   0.0000000000
C          C       0.75000   0.53101   0.27984   0.0000000000
C          C       0.75000   0.51548   0.30823   0.0000000000
C          C       0.75000   0.51532   0.25149   0.0000000000
C          C       0.75000   0.98459   0.70654   0.0000000000
C          C       0.75000   0.98461   0.76332   0.0000000000
H          H       0.75000   0.71950   0.29398   0.0000000000
H          H       0.75000   0.78921   0.77677   0.0000000000
H          H       0.75000   0.82578   0.25893   0.0000000000
H          H       0.75000   0.81949   0.19968   0.0000000000
H          H       0.75000   0.67849   0.76682   0.0000000000
H          H       0.75000   0.67244   0.70789   0.0000000000
H          H       0.75000   0.69380   0.54949   0.0000000000
H          H       0.75000   0.67206   0.29839   0.0000000000
H          H       0.75000   0.61622   0.30348   0.0000000000
H          H       0.75000   0.60804   0.20074   0.0000000000
H          H       0.75000   0.66364   0.19565   0.0000000000
H          H       0.75000   0.56480   0.23049   0.0000000000
H          H       0.75000   0.79266   0.52048   0.0000000000
H          H       0.75000   0.80131   0.46193   0.0000000000
H          H       0.75000   0.70525   0.44619   0.0000000000
H          H       0.75000   0.69664   0.50486   0.0000000000
H          H       0.75000   0.80363   0.99781   0.0000000000
H          H       0.75000   0.78801   0.94073   0.0000000000
H          H       0.75000   0.69466   0.96897   0.0000000000
H          H       0.75000   0.71010   0.02586   0.0000000000
H          H       0.75000   0.83462   0.77118   0.0000000000
H          H       0.75000   0.89026   0.76597   0.0000000000
H          H       0.75000   0.88193   0.66330   0.0000000000
H          H       0.75000   0.82610   0.66847   0.0000000000
H          H       0.75000   0.93159   0.68698   0.0000000000
H          H       0.75000   0.81368   0.15498   0.0000000000
H          H       0.75000   0.80381   0.09623   0.0000000000
H          H       0.75000   0.70830   0.11422   0.0000000000
H          H       0.75000   0.71775   0.17188   0.0000000000
H          H       0.75000   0.68451   0.81183   0.0000000000
H          H       0.75000   0.69436   0.87053   0.0000000000
H          H       0.75000   0.78991   0.85255   0.0000000000
H          H       0.75000   0.78043   0.79492   0.0000000000
H          H       0.75000   0.77513   0.90338   0.0000000000
H          H       0.75000   0.72313   0.06338   0.0000000000
H          H       0.75000   0.82910   0.30447   0.0000000000
H          H       0.75000   0.83120   0.36406   0.0000000000
H          H       0.75000   0.73417   0.36763   0.0000000000
H          H       0.75000   0.73202   0.30937   0.0000000000
H          H       0.75000   0.80418   0.41734   0.0000000000
H          H       0.75000   0.66913   0.66237   0.0000000000
H          H       0.75000   0.66695   0.60279   0.0000000000
H          H       0.75000   0.76397   0.59905   0.0000000000
H          H       0.75000   0.76622   0.65733   0.0000000000
H          H       0.75000   0.52801   0.33140   0.0000000000
H          H       0.75000   0.52774   0.22824   0.0000000000
H          H       0.75000   0.97201   0.68340   0.0000000000
H          H       0.75000   0.97210   0.78652   0.0000000000
N          N       0.25000   0.27844   0.73195   0.0000000000
N          N       0.25000   0.28377   0.78506   0.0000000000
N          N       0.25000   0.22334   0.30121   0.0000000000
N          N       0.25000   0.21802   0.24809   0.0000000000
N          N       0.25000   0.06240   0.26398   0.0000000000
N          N       0.25000   0.43738   0.72009   0.0000000000
N          N       0.25000   0.25956   0.45117   0.0000000000
N          N       0.25000   0.23296   0.95298   0.0000000000
N          N       0.25000   0.26876   0.08023   0.0000000000
N          N       0.25000   0.24247   0.58214   0.0000000000
C          C       0.25000   0.25005   0.74611   0.0000000000
C          C       0.25000   0.22232   0.73152   0.0000000000
C          C       0.25000   0.19741   0.75148   0.0000000000
C          C       0.25000   0.25326   0.77768   0.0000000000
C          C       0.25000   0.22921   0.79830   0.0000000000
C          C       0.25000   0.20082   0.78451   0.0000000000
C          C       0.25000   0.29709   0.75670   0.0000000000
C          C       0.25000   0.25173   0.28705   0.0000000000
C          C       0.25000   0.27945   0.30166   0.0000000000
C          C       0.25000   0.24853   0.25548   0.0000000000
C          C       0.25000   0.30098   0.24866   0.0000000000
C          C       0.25000   0.03092   0.26496   0.0000000000
C          C       0.25000   0.20470   0.27645   0.0000000000
C          C       0.25000   0.27260   0.23487   0.0000000000
C          C       0.25000   0.30437   0.28169   0.0000000000
C          C       0.25000   0.21969   0.69682   0.0000000000
C          C       0.25000   0.28208   0.33639   0.0000000000
C          C       0.25000   0.28470   0.43660   0.0000000000
C          C       0.25000   0.26807   0.20035   0.0000000000
C          C       0.25000   0.23374   0.83283   0.0000000000
C          C       0.25000   0.17257   0.27987   0.0000000000
C          C       0.25000   0.32922   0.75329   0.0000000000
C          C       0.25000   0.34235   0.72353   0.0000000000
C          C       0.25000   0.37310   0.72072   0.0000000000
C          C       0.25000   0.39071   0.74773   0.0000000000
C          C       0.25000   0.37759   0.77732   0.0000000000
C          C       0.25000   0.34697   0.78011   0.0000000000
C          C       0.25000   0.42283   0.74623   0.0000000000
C          C       0.25000   0.25577   0.48429   0.0000000000
C          C       0.25000   0.22700   0.49621   0.0000000000
C          C       0.25000   0.22219   0.52848   0.0000000000
C          C       0.25000   0.24631   0.54903   0.0000000000
C          C       0.25000   0.27509   0.53711   0.0000000000
C          C       0.25000   0.27990   0.50483   0.0000000000
C          C       0.25000   0.24216   0.98505   0.0000000000
C          C       0.25000   0.22081   0.00860   0.0000000000
C          C       0.25000   0.22941   0.03998   0.0000000000
C          C       0.25000   0.25955   0.04817   0.0000000000
C          C       0.25000   0.28089   0.02462   0.0000000000
C          C       0.25000   0.27229   0.99324   0.0000000000
C          C       0.25000   0.24461   0.89765   0.0000000000
C          C       0.25000   0.15480   0.25307   0.0000000000
C          C       0.25000   0.12419   0.25592   0.0000000000
C          C       0.25000   0.11105   0.28564   0.0000000000
C          C       0.25000   0.12873   0.31249   0.0000000000
C          C       0.25000   0.15947   0.30963   0.0000000000
C          C       0.25000   0.07893   0.28874   0.0000000000
C          C       0.25000   0.21001   0.85409   0.0000000000
C          C       0.25000   0.21542   0.88651   0.0000000000
C          C       0.25000   0.26801   0.87670   0.0000000000
C          C       0.25000   0.26257   0.84481   0.0000000000
C          C       0.25000   0.29180   0.17910   0.0000000000
C          C       0.25000   0.28637   0.14668   0.0000000000
C          C       0.25000   0.25716   0.13556   0.0000000000
C          C       0.25000   0.23378   0.15651   0.0000000000
C          C       0.25000   0.23924   0.18839   0.0000000000
C          C       0.25000   0.24943   0.10248   0.0000000000
C          C       0.25000   0.25231   0.93074   0.0000000000
C          C       0.25000   0.19225   0.68136   0.0000000000
C          C       0.25000   0.19107   0.64841   0.0000000000
C          C       0.25000   0.21732   0.63094   0.0000000000
C          C       0.25000   0.24441   0.64642   0.0000000000
C          C       0.25000   0.24545   0.67871   0.0000000000
C          C       0.25000   0.21729   0.59664   0.0000000000
C          C       0.25000   0.30953   0.35183   0.0000000000
C          C       0.25000   0.31076   0.38477   0.0000000000
C          C       0.25000   0.28455   0.40230   0.0000000000
C          C       0.25000   0.25743   0.38686   0.0000000000
C          C       0.25000   0.25634   0.35454   0.0000000000
C          C       0.25000   0.46899   0.72016   0.0000000000
C          C       0.25000   0.48452   0.69177   0.0000000000
C          C       0.25000   0.48468   0.74851   0.0000000000
C          C       0.25000   0.01541   0.29346   0.0000000000
C          C       0.25000   0.01539   0.23668   0.0000000000
H          H       0.25000   0.28050   0.70602   0.0000000000
H          H       0.25000   0.21079   0.22323   0.0000000000
H          H       0.25000   0.17422   0.74107   0.0000000000
H          H       0.25000   0.18051   0.80032   0.0000000000
H          H       0.25000   0.32151   0.23318   0.0000000000
H          H       0.25000   0.32756   0.29211   0.0000000000
H          H       0.25000   0.30620   0.45051   0.0000000000
H          H       0.25000   0.32794   0.70161   0.0000000000
H          H       0.25000   0.38378   0.69652   0.0000000000
H          H       0.25000   0.39196   0.79926   0.0000000000
H          H       0.25000   0.33636   0.80435   0.0000000000
H          H       0.25000   0.43520   0.76951   0.0000000000
H          H       0.25000   0.20734   0.47952   0.0000000000
H          H       0.25000   0.19869   0.53807   0.0000000000
H          H       0.25000   0.29475   0.55381   0.0000000000
H          H       0.25000   0.30336   0.49514   0.0000000000
H          H       0.25000   0.19637   0.00219   0.0000000000
H          H       0.25000   0.21199   0.05927   0.0000000000
H          H       0.25000   0.30534   0.03103   0.0000000000
H          H       0.25000   0.28990   0.97414   0.0000000000
H          H       0.25000   0.16538   0.22882   0.0000000000
H          H       0.25000   0.10974   0.23403   0.0000000000
H          H       0.25000   0.11807   0.33670   0.0000000000
H          H       0.25000   0.17390   0.33153   0.0000000000
H          H       0.25000   0.06841   0.31302   0.0000000000
H          H       0.25000   0.18632   0.84502   0.0000000000
H          H       0.25000   0.19619   0.90377   0.0000000000
H          H       0.25000   0.29170   0.88578   0.0000000000
H          H       0.25000   0.28225   0.82812   0.0000000000
H          H       0.25000   0.31549   0.18817   0.0000000000
H          H       0.25000   0.30564   0.12947   0.0000000000
H          H       0.25000   0.21009   0.14745   0.0000000000
H          H       0.25000   0.21957   0.20508   0.0000000000
H          H       0.25000   0.22487   0.09662   0.0000000000
H          H       0.25000   0.27687   0.93662   0.0000000000
H          H       0.25000   0.17090   0.69553   0.0000000000
H          H       0.25000   0.16880   0.63594   0.0000000000
H          H       0.25000   0.26583   0.63237   0.0000000000
H          H       0.25000   0.26798   0.69063   0.0000000000
H          H       0.25000   0.19582   0.58266   0.0000000000
H          H       0.25000   0.33087   0.33763   0.0000000000
H          H       0.25000   0.33305   0.39721   0.0000000000
H          H       0.25000   0.23603   0.40095   0.0000000000
H          H       0.25000   0.23378   0.34267   0.0000000000
H          H       0.25000   0.47199   0.66860   0.0000000000
H          H       0.25000   0.47226   0.77176   0.0000000000
H          H       0.25000   0.02799   0.31660   0.0000000000
H          H       0.25000   0.02790   0.21348   0.0000000000
N          N       0.25000   0.72156   0.73195   0.0000000000
N          N       0.25000   0.71623   0.78506   0.0000000000
N          N       0.25000   0.77666   0.30121   0.0000000000
N          N       0.25000   0.78198   0.24809   0.0000000000
N          N       0.25000   0.93760   0.26398   0.0000000000
N          N       0.25000   0.56262   0.72009   0.0000000000
N          N       0.25000   0.74044   0.45117   0.0000000000
N          N       0.25000   0.76704   0.95298   0.0000000000
N          N       0.25000   0.73124   0.08023   0.0000000000
N          N       0.25000   0.75753   0.58214   0.0000000000
C          C       0.25000   0.74995   0.74611   0.0000000000
C          C       0.25000   0.77768   0.73152   0.0000000000
C          C       0.25000   0.80259   0.75148   0.0000000000
C          C       0.25000   0.74674   0.77768   0.0000000000
C          C       0.25000   0.77079   0.79830   0.0000000000
C          C       0.25000   0.79918   0.78451   0.0000000000
C          C       0.25000   0.70291   0.75670   0.0000000000
C          C       0.25000   0.74827   0.28705   0.0000000000
C          C       0.25000   0.72055   0.30166   0.0000000000
C          C       0.25000   0.75147   0.25548   0.0000000000
C          C       0.25000   0.69902   0.24866   0.0000000000
C          C       0.25000   0.96908   0.26496   0.0000000000
C          C       0.25000   0.79530   0.27645   0.0000000000
C          C       0.25000   0.72740   0.23487   0.0000000000
C          C       0.25000   0.69563   0.28169   0.0000000000
C          C       0.25000   0.78031   0.69682   0.0000000000
C          C       0.25000   0.71792   0.33639   0.0000000000
C          C       0.25000   0.71530   0.43660   0.0000000000
C          C       0.25000   0.73193   0.20035   0.0000000000
C          C       0.25000   0.76626   0.83283   0.0000000000
C          C       0.25000   0.82743   0.27987   0.0000000000
C          C       0.25000   0.67078   0.75329   0.0000000000
C          C       0.25000   0.65765   0.72353   0.0000000000
C          C       0.25000   0.62690   0.72072   0.0000000000
C          C       0.25000   0.60929   0.74773   0.0000000000
C          C       0.25000   0.62241   0.77732   0.0000000000
C          C       0.25000   0.65303   0.78011   0.0000000000
C          C       0.25000   0.57717   0.74623   0.0000000000
C          C       0.25000   0.74423   0.48429   0.0000000000
C          C       0.25000   0.77300   0.49621   0.0000000000
C          C       0.25000   0.77781   0.52848   0.0000000000
C          C       0.25000   0.75369   0.54903   0.0000000000
C          C       0.25000   0.72491   0.53711   0.0000000000
C          C       0.25000   0.72010   0.50483   0.0000000000
C          C       0.25000   0.75784   0.98505   0.0000000000
C          C       0.25000   0.77919   0.00860   0.0000000000
C          C       0.25000   0.77059   0.03998   0.0000000000
C          C       0.25000   0.74045   0.04817   0.0000000000
C          C       0.25000   0.71911   0.02462   0.0000000000
C          C       0.25000   0.72771   0.99324   0.0000000000
C          C       0.25000   0.75539   0.89765   0.0000000000
C          C       0.25000   0.84520   0.25307   0.0000000000
C          C       0.25000   0.87581   0.25592   0.0000000000
C          C       0.25000   0.88895   0.28564   0.0000000000
C          C       0.25000   0.87127   0.31249   0.0000000000
C          C       0.25000   0.84053   0.30963   0.0000000000
C          C       0.25000   0.92107   0.28874   0.0000000000
C          C       0.25000   0.78999   0.85409   0.0000000000
C          C       0.25000   0.78458   0.88651   0.0000000000
C          C       0.25000   0.73199   0.87670   0.0000000000
C          C       0.25000   0.73743   0.84481   0.0000000000
C          C       0.25000   0.70820   0.17910   0.0000000000
C          C       0.25000   0.71363   0.14668   0.0000000000
C          C       0.25000   0.74284   0.13556   0.0000000000
C          C       0.25000   0.76622   0.15651   0.0000000000
C          C       0.25000   0.76076   0.18839   0.0000000000
C          C       0.25000   0.75057   0.10248   0.0000000000
C          C       0.25000   0.74769   0.93074   0.0000000000
C          C       0.25000   0.80775   0.68136   0.0000000000
C          C       0.25000   0.80893   0.64841   0.0000000000
C          C       0.25000   0.78268   0.63094   0.0000000000
C          C       0.25000   0.75559   0.64642   0.0000000000
C          C       0.25000   0.75455   0.67871   0.0000000000
C          C       0.25000   0.78271   0.59664   0.0000000000
C          C       0.25000   0.69047   0.35183   0.0000000000
C          C       0.25000   0.68924   0.38477   0.0000000000
C          C       0.25000   0.71545   0.40230   0.0000000000
C          C       0.25000   0.74257   0.38686   0.0000000000
C          C       0.25000   0.74366   0.35454   0.0000000000
C          C       0.25000   0.53101   0.72016   0.0000000000
C          C       0.25000   0.51548   0.69177   0.0000000000
C          C       0.25000   0.51532   0.74851   0.0000000000
C          C       0.25000   0.98459   0.29346   0.0000000000
C          C       0.25000   0.98461   0.23668   0.0000000000
H          H       0.25000   0.71950   0.70602   0.0000000000
H          H       0.25000   0.78921   0.22323   0.0000000000
H          H       0.25000   0.82578   0.74107   0.0000000000
H          H       0.25000   0.81949   0.80032   0.0000000000
H          H       0.25000   0.67849   0.23318   0.0000000000
H          H       0.25000   0.67244   0.29211   0.0000000000
H          H       0.25000   0.69380   0.45051   0.0000000000
H          H       0.25000   0.67206   0.70161   0.0000000000
H          H       0.25000   0.61622   0.69652   0.0000000000
H          H       0.25000   0.60804   0.79926   0.0000000000
H          H       0.25000   0.66364   0.80435   0.0000000000
H          H       0.25000   0.56480   0.76951   0.0000000000
H          H       0.25000   0.79266   0.47952   0.0000000000
H          H       0.25000   0.80131   0.53807   0.0000000000
H          H       0.25000   0.70525   0.55381   0.0000000000
H          H       0.25000   0.69664   0.49514   0.0000000000
H          H       0.25000   0.80363   0.00219   0.0000000000
H          H       0.25000   0.78801   0.05927   0.0000000000
H          H       0.25000   0.69466   0.03103   0.0000000000
H          H       0.25000   0.71010   0.97414   0.0000000000
H          H       0.25000   0.83462   0.22882   0.0000000000
H          H       0.25000   0.89026   0.23403   0.0000000000
H          H       0.25000   0.88193   0.33670   0.0000000000
H          H       0.25000   0.82610   0.33153   0.0000000000
H          H       0.25000   0.93159   0.31302   0.0000000000
H          H       0.25000   0.81368   0.84502   0.0000000000
H          H       0.25000   0.80381   0.90377   0.0000000000
H          H       0.25000   0.70830   0.88578   0.0000000000
H          H       0.25000   0.71775   0.82812   0.0000000000
H          H       0.25000   0.68451   0.18817   0.0000000000
H          H       0.25000   0.69436   0.12947   0.0000000000
H          H       0.25000   0.78991   0.14745   0.0000000000
H          H       0.25000   0.78043   0.20508   0.0000000000
H          H       0.25000   0.77513   0.09662   0.0000000000
H          H       0.25000   0.72313   0.93662   0.0000000000
H          H       0.25000   0.82910   0.69553   0.0000000000
H          H       0.25000   0.83120   0.63594   0.0000000000
H          H       0.25000   0.73417   0.63237   0.0000000000
H          H       0.25000   0.73202   0.69063   0.0000000000
H          H       0.25000   0.80418   0.58266   0.0000000000
H          H       0.25000   0.66913   0.33763   0.0000000000
H          H       0.25000   0.66695   0.39721   0.0000000000
H          H       0.25000   0.76397   0.40095   0.0000000000
H          H       0.25000   0.76622   0.34267   0.0000000000
H          H       0.25000   0.52801   0.66860   0.0000000000
H          H       0.25000   0.52774   0.77176   0.0000000000
H          H       0.25000   0.97201   0.31660   0.0000000000
H          H       0.25000   0.97210   0.21348   0.0000000000
