data_crystal

_cell_length_a    68.52000
_cell_length_b    29.40000
_cell_length_c    6.90000
_cell_angle_alpha 90.00000
_cell_angle_beta  90.00000
_cell_angle_gamma 90.00000

_space_group_name_Hall 'P 1'
_space_group_name_H-M_alt  'P 1'

loop_
_symmetry_equiv_pos_as_xyz
'x,y,z' 

loop_
_atom_site_label
_atom_site_type_symbol
_atom_site_fract_x
_atom_site_fract_y
_atom_site_fract_z
C          C       0.63179   0.71880   0.00000 
C          C       0.61162   0.70919   0.00000 
C          C       0.59768   0.74447   0.00000 
C          C       0.60344   0.79056   0.00000 
C          C       0.62361   0.79903   0.00000 
C          C       0.63708   0.76493   0.00000 
C          C       0.58864   0.82758   0.00000 
C          C       0.56860   0.81739   0.00000 
C          C       0.55468   0.85224   0.00000 
C          C       0.56064   0.89786   0.00000 
C          C       0.58050   0.90822   0.00000 
C          C       0.59435   0.87343   0.00000 
C          C       0.64641   0.68146   0.00000 
C          C       0.64046   0.63570   0.00000 
C          C       0.65428   0.60062   0.00000 
C          C       0.67421   0.61083   0.00000 
C          C       0.68022   0.65630   0.00000 
C          C       0.66646   0.69113   0.00000 
N          N       0.65606   0.78424   0.00000 
C          C       0.65259   0.82968   0.00000 
N          N       0.63344   0.84150   0.00000 
C          C       0.66837   0.86355   0.00000 
C          C       0.68793   0.84963   0.00000 
C          C       0.70291   0.88188   0.00000 
C          C       0.69843   0.92839   0.00000 
C          C       0.67893   0.94232   0.00000 
C          C       0.66396   0.91008   0.00000 
C          C       0.72221   0.54959   0.00000 
C          C       0.54657   0.93543   0.00000 
N          N       0.52788   0.92850   0.00000 
C          C       0.51397   0.96489   0.00000 
C          C       0.51984   0.01070   0.00000 
C          C       0.50594   0.04550   0.00000 
C          C       0.74164   0.56399   0.00000 
C          C       0.75677   0.53224   0.00000 
C          C       0.75262   0.48547   0.00000 
C          C       0.73317   0.47101   0.00000 
C          C       0.71800   0.50284   0.00000 
C          C       0.68864   0.57403   0.00000 
N          N       0.70715   0.58323   0.00000 
N          N       0.73213   0.95219   0.00000 
C          C       0.71379   0.96302   0.00000 
H          H       0.60665   0.67218   0.00000 
H          H       0.58144   0.73599   0.00000 
H          H       0.56372   0.78032   0.00000 
H          H       0.53846   0.84355   0.00000 
H          H       0.58548   0.94522   0.00000 
H          H       0.61057   0.88205   0.00000 
H          H       0.62422   0.62729   0.00000 
H          H       0.64928   0.56363   0.00000 
H          H       0.69644   0.66494   0.00000 
H          H       0.67142   0.72813   0.00000 
H          H       0.67129   0.77139   0.00000 
H          H       0.69160   0.81181   0.00000 
H          H       0.71880   0.87038   0.00000 
H          H       0.67520   0.98011   0.00000 
H          H       0.64807   0.92158   0.00000 
H          H       0.55195   0.97211   0.00000 
H          H       0.53603   0.01966   0.00000 
H          H       0.51082   0.08257   0.00000 
H          H       0.74510   0.60192   0.00000 
H          H       0.77260   0.54421   0.00000 
H          H       0.72962   0.43313   0.00000 
H          H       0.70218   0.49086   0.00000 
H          H       0.68362   0.53707   0.00000 
H          H       0.70974   0.00063   0.00000 
C          C       0.13179   0.71880   0.50000 
C          C       0.11162   0.70919   0.50000 
C          C       0.09768   0.74447   0.50000 
C          C       0.10344   0.79056   0.50000 
C          C       0.12361   0.79903   0.50000 
C          C       0.13708   0.76493   0.50000 
C          C       0.08864   0.82758   0.50000 
C          C       0.06860   0.81739   0.50000 
C          C       0.05468   0.85224   0.50000 
C          C       0.06064   0.89786   0.50000 
C          C       0.08050   0.90822   0.50000 
C          C       0.09435   0.87343   0.50000 
C          C       0.14641   0.68146   0.50000 
C          C       0.14046   0.63570   0.50000 
C          C       0.15428   0.60062   0.50000 
C          C       0.17421   0.61083   0.50000 
C          C       0.18022   0.65630   0.50000 
C          C       0.16646   0.69113   0.50000 
N          N       0.15606   0.78424   0.50000 
C          C       0.15259   0.82968   0.50000 
N          N       0.13344   0.84150   0.50000 
C          C       0.16837   0.86355   0.50000 
C          C       0.18793   0.84963   0.50000 
C          C       0.20291   0.88188   0.50000 
C          C       0.19843   0.92839   0.50000 
C          C       0.17893   0.94232   0.50000 
C          C       0.16396   0.91008   0.50000 
C          C       0.22221   0.54959   0.50000 
C          C       0.04657   0.93543   0.50000 
N          N       0.02788   0.92850   0.50000 
C          C       0.01397   0.96489   0.50000 
C          C       0.01984   0.01070   0.50000 
C          C       0.00594   0.04550   0.50000 
C          C       0.24164   0.56399   0.50000 
C          C       0.25677   0.53224   0.50000 
C          C       0.25262   0.48547   0.50000 
C          C       0.23317   0.47101   0.50000 
C          C       0.21800   0.50284   0.50000 
C          C       0.18864   0.57403   0.50000 
N          N       0.20715   0.58323   0.50000 
N          N       0.23213   0.95219   0.50000 
C          C       0.21379   0.96302   0.50000 
H          H       0.10665   0.67218   0.50000 
H          H       0.08144   0.73599   0.50000 
H          H       0.06372   0.78032   0.50000 
H          H       0.03846   0.84355   0.50000 
H          H       0.08548   0.94522   0.50000 
H          H       0.11057   0.88205   0.50000 
H          H       0.12422   0.62729   0.50000 
H          H       0.14928   0.56363   0.50000 
H          H       0.19644   0.66494   0.50000 
H          H       0.17142   0.72813   0.50000 
H          H       0.17129   0.77139   0.50000 
H          H       0.19160   0.81181   0.50000 
H          H       0.21880   0.87038   0.50000 
H          H       0.17520   0.98011   0.50000 
H          H       0.14807   0.92158   0.50000 
H          H       0.05195   0.97211   0.50000 
H          H       0.03603   0.01966   0.50000 
H          H       0.01082   0.08257   0.50000 
H          H       0.24510   0.60192   0.50000 
H          H       0.27260   0.54421   0.50000 
H          H       0.22962   0.43313   0.50000 
H          H       0.20218   0.49086   0.50000 
H          H       0.18362   0.53707   0.50000 
H          H       0.20974   0.00063   0.50000 
C          C       0.86821   0.21880   0.00000 
C          C       0.88838   0.20919   0.00000 
C          C       0.90232   0.24447   0.00000 
C          C       0.89656   0.29056   0.00000 
C          C       0.87639   0.29903   0.00000 
C          C       0.86292   0.26493   0.00000 
C          C       0.91136   0.32758   0.00000 
C          C       0.93140   0.31739   0.00000 
C          C       0.94532   0.35224   0.00000 
C          C       0.93936   0.39786   0.00000 
C          C       0.91950   0.40822   0.00000 
C          C       0.90565   0.37343   0.00000 
C          C       0.85359   0.18146   0.00000 
C          C       0.85954   0.13570   0.00000 
C          C       0.84572   0.10062   0.00000 
C          C       0.82579   0.11083   0.00000 
C          C       0.81978   0.15630   0.00000 
C          C       0.83354   0.19113   0.00000 
N          N       0.84394   0.28424   0.00000 
C          C       0.84741   0.32968   0.00000 
N          N       0.86656   0.34150   0.00000 
C          C       0.83163   0.36355   0.00000 
C          C       0.81207   0.34963   0.00000 
C          C       0.79709   0.38188   0.00000 
C          C       0.80157   0.42839   0.00000 
C          C       0.82107   0.44232   0.00000 
C          C       0.83604   0.41008   0.00000 
C          C       0.77779   0.04959   0.00000 
C          C       0.95343   0.43543   0.00000 
N          N       0.97212   0.42850   0.00000 
C          C       0.98603   0.46489   0.00000 
C          C       0.98016   0.51070   0.00000 
C          C       0.99406   0.54550   0.00000 
C          C       0.75836   0.06399   0.00000 
C          C       0.74323   0.03224   0.00000 
C          C       0.74738   0.98547   0.00000 
C          C       0.76683   0.97101   0.00000 
C          C       0.78200   0.00284   0.00000 
C          C       0.81136   0.07403   0.00000 
N          N       0.79285   0.08323   0.00000 
N          N       0.76787   0.45219   0.00000 
C          C       0.78621   0.46302   0.00000 
H          H       0.89335   0.17218   0.00000 
H          H       0.91856   0.23599   0.00000 
H          H       0.93628   0.28032   0.00000 
H          H       0.96154   0.34355   0.00000 
H          H       0.91452   0.44522   0.00000 
H          H       0.88943   0.38205   0.00000 
H          H       0.87578   0.12729   0.00000 
H          H       0.85072   0.06363   0.00000 
H          H       0.80356   0.16494   0.00000 
H          H       0.82858   0.22813   0.00000 
H          H       0.82871   0.27139   0.00000 
H          H       0.80840   0.31181   0.00000 
H          H       0.78120   0.37038   0.00000 
H          H       0.82480   0.48011   0.00000 
H          H       0.85193   0.42158   0.00000 
H          H       0.94805   0.47211   0.00000 
H          H       0.96397   0.51966   0.00000 
H          H       0.98918   0.58257   0.00000 
H          H       0.75490   0.10192   0.00000 
H          H       0.72740   0.04421   0.00000 
H          H       0.77038   0.93313   0.00000 
H          H       0.79782   0.99086   0.00000 
H          H       0.81638   0.03707   0.00000 
H          H       0.79026   0.50063   0.00000 
C          C       0.36821   0.21880   0.50000 
C          C       0.38838   0.20919   0.50000 
C          C       0.40232   0.24447   0.50000 
C          C       0.39656   0.29056   0.50000 
C          C       0.37639   0.29903   0.50000 
C          C       0.36292   0.26493   0.50000 
C          C       0.41136   0.32758   0.50000 
C          C       0.43140   0.31739   0.50000 
C          C       0.44532   0.35224   0.50000 
C          C       0.43936   0.39786   0.50000 
C          C       0.41950   0.40822   0.50000 
C          C       0.40565   0.37343   0.50000 
C          C       0.35359   0.18146   0.50000 
C          C       0.35954   0.13570   0.50000 
C          C       0.34572   0.10062   0.50000 
C          C       0.32579   0.11083   0.50000 
C          C       0.31978   0.15630   0.50000 
C          C       0.33354   0.19113   0.50000 
N          N       0.34394   0.28424   0.50000 
C          C       0.34741   0.32968   0.50000 
N          N       0.36656   0.34150   0.50000 
C          C       0.33163   0.36355   0.50000 
C          C       0.31207   0.34963   0.50000 
C          C       0.29709   0.38188   0.50000 
C          C       0.30157   0.42839   0.50000 
C          C       0.32107   0.44232   0.50000 
C          C       0.33604   0.41008   0.50000 
C          C       0.27779   0.04959   0.50000 
C          C       0.45343   0.43543   0.50000 
N          N       0.47212   0.42850   0.50000 
C          C       0.48603   0.46489   0.50000 
C          C       0.48016   0.51070   0.50000 
C          C       0.49406   0.54550   0.50000 
C          C       0.25836   0.06399   0.50000 
C          C       0.24323   0.03224   0.50000 
C          C       0.24738   0.98547   0.50000 
C          C       0.26683   0.97101   0.50000 
C          C       0.28200   0.00284   0.50000 
C          C       0.31136   0.07403   0.50000 
N          N       0.29285   0.08323   0.50000 
N          N       0.26787   0.45219   0.50000 
C          C       0.28621   0.46302   0.50000 
H          H       0.39335   0.17218   0.50000 
H          H       0.41856   0.23599   0.50000 
H          H       0.43628   0.28032   0.50000 
H          H       0.46154   0.34355   0.50000 
H          H       0.41452   0.44522   0.50000 
H          H       0.38943   0.38205   0.50000 
H          H       0.37578   0.12729   0.50000 
H          H       0.35072   0.06363   0.50000 
H          H       0.30356   0.16494   0.50000 
H          H       0.32858   0.22813   0.50000 
H          H       0.32871   0.27139   0.50000 
H          H       0.30840   0.31181   0.50000 
H          H       0.28120   0.37038   0.50000 
H          H       0.32480   0.48011   0.50000 
H          H       0.35193   0.42158   0.50000 
H          H       0.44805   0.47211   0.50000 
H          H       0.46397   0.51966   0.50000 
H          H       0.48918   0.58257   0.50000 
H          H       0.25490   0.10192   0.50000 
H          H       0.22740   0.04421   0.50000 
H          H       0.27038   0.93313   0.50000 
H          H       0.29782   0.99086   0.50000 
H          H       0.31638   0.03707   0.50000 
H          H       0.29026   0.50063   0.50000 
C          C       0.13179   0.78120   0.00000 
C          C       0.11162   0.79081   0.00000 
C          C       0.09768   0.75553   0.00000 
C          C       0.10344   0.70944   0.00000 
C          C       0.12361   0.70097   0.00000 
C          C       0.13708   0.73507   0.00000 
C          C       0.08864   0.67242   0.00000 
C          C       0.06860   0.68261   0.00000 
C          C       0.05468   0.64776   0.00000 
C          C       0.06064   0.60214   0.00000 
C          C       0.08050   0.59178   0.00000 
C          C       0.09435   0.62657   0.00000 
C          C       0.14641   0.81854   0.00000 
C          C       0.14046   0.86430   0.00000 
C          C       0.15428   0.89938   0.00000 
C          C       0.17421   0.88917   0.00000 
C          C       0.18022   0.84370   0.00000 
C          C       0.16646   0.80887   0.00000 
N          N       0.15606   0.71576   0.00000 
C          C       0.15259   0.67032   0.00000 
N          N       0.13344   0.65850   0.00000 
C          C       0.16837   0.63645   0.00000 
C          C       0.18793   0.65037   0.00000 
C          C       0.20291   0.61812   0.00000 
C          C       0.19843   0.57161   0.00000 
C          C       0.17893   0.55768   0.00000 
C          C       0.16396   0.58992   0.00000 
C          C       0.22221   0.95041   0.00000 
C          C       0.04657   0.56457   0.00000 
N          N       0.02788   0.57150   0.00000 
C          C       0.01397   0.53511   0.00000 
C          C       0.01984   0.48930   0.00000 
C          C       0.00594   0.45450   0.00000 
C          C       0.24164   0.93601   0.00000 
C          C       0.25677   0.96776   0.00000 
C          C       0.25262   0.01453   0.00000 
C          C       0.23317   0.02899   0.00000 
C          C       0.21800   0.99716   0.00000 
C          C       0.18864   0.92597   0.00000 
N          N       0.20715   0.91677   0.00000 
N          N       0.23213   0.54781   0.00000 
C          C       0.21379   0.53698   0.00000 
H          H       0.10665   0.82782   0.00000 
H          H       0.08144   0.76401   0.00000 
H          H       0.06372   0.71968   0.00000 
H          H       0.03846   0.65645   0.00000 
H          H       0.08548   0.55478   0.00000 
H          H       0.11057   0.61795   0.00000 
H          H       0.12422   0.87271   0.00000 
H          H       0.14928   0.93637   0.00000 
H          H       0.19644   0.83506   0.00000 
H          H       0.17142   0.77187   0.00000 
H          H       0.17129   0.72861   0.00000 
H          H       0.19160   0.68819   0.00000 
H          H       0.21880   0.62962   0.00000 
H          H       0.17520   0.51989   0.00000 
H          H       0.14807   0.57842   0.00000 
H          H       0.05195   0.52789   0.00000 
H          H       0.03603   0.48034   0.00000 
H          H       0.01082   0.41743   0.00000 
H          H       0.24510   0.89808   0.00000 
H          H       0.27260   0.95579   0.00000 
H          H       0.22962   0.06687   0.00000 
H          H       0.20218   0.00914   0.00000 
H          H       0.18362   0.96293   0.00000 
H          H       0.20974   0.49937   0.00000 
C          C       0.63179   0.78120   0.50000 
C          C       0.61162   0.79081   0.50000 
C          C       0.59768   0.75553   0.50000 
C          C       0.60344   0.70944   0.50000 
C          C       0.62361   0.70097   0.50000 
C          C       0.63708   0.73507   0.50000 
C          C       0.58864   0.67242   0.50000 
C          C       0.56860   0.68261   0.50000 
C          C       0.55468   0.64776   0.50000 
C          C       0.56064   0.60214   0.50000 
C          C       0.58050   0.59178   0.50000 
C          C       0.59435   0.62657   0.50000 
C          C       0.64641   0.81854   0.50000 
C          C       0.64046   0.86430   0.50000 
C          C       0.65428   0.89938   0.50000 
C          C       0.67421   0.88917   0.50000 
C          C       0.68022   0.84370   0.50000 
C          C       0.66646   0.80887   0.50000 
N          N       0.65606   0.71576   0.50000 
C          C       0.65259   0.67032   0.50000 
N          N       0.63344   0.65850   0.50000 
C          C       0.66837   0.63645   0.50000 
C          C       0.68793   0.65037   0.50000 
C          C       0.70291   0.61812   0.50000 
C          C       0.69843   0.57161   0.50000 
C          C       0.67893   0.55768   0.50000 
C          C       0.66396   0.58992   0.50000 
C          C       0.72221   0.95041   0.50000 
C          C       0.54657   0.56457   0.50000 
N          N       0.52788   0.57150   0.50000 
C          C       0.51397   0.53511   0.50000 
C          C       0.51984   0.48930   0.50000 
C          C       0.50594   0.45450   0.50000 
C          C       0.74164   0.93601   0.50000 
C          C       0.75677   0.96776   0.50000 
C          C       0.75262   0.01453   0.50000 
C          C       0.73317   0.02899   0.50000 
C          C       0.71800   0.99716   0.50000 
C          C       0.68864   0.92597   0.50000 
N          N       0.70715   0.91677   0.50000 
N          N       0.73213   0.54781   0.50000 
C          C       0.71379   0.53698   0.50000 
H          H       0.60665   0.82782   0.50000 
H          H       0.58144   0.76401   0.50000 
H          H       0.56372   0.71968   0.50000 
H          H       0.53846   0.65645   0.50000 
H          H       0.58548   0.55478   0.50000 
H          H       0.61057   0.61795   0.50000 
H          H       0.62422   0.87271   0.50000 
H          H       0.64928   0.93637   0.50000 
H          H       0.69644   0.83506   0.50000 
H          H       0.67142   0.77187   0.50000 
H          H       0.67129   0.72861   0.50000 
H          H       0.69160   0.68819   0.50000 
H          H       0.71880   0.62962   0.50000 
H          H       0.67520   0.51989   0.50000 
H          H       0.64807   0.57842   0.50000 
H          H       0.55195   0.52789   0.50000 
H          H       0.53603   0.48034   0.50000 
H          H       0.51082   0.41743   0.50000 
H          H       0.74510   0.89808   0.50000 
H          H       0.77260   0.95579   0.50000 
H          H       0.72962   0.06687   0.50000 
H          H       0.70218   0.00914   0.50000 
H          H       0.68362   0.96293   0.50000 
H          H       0.70974   0.49937   0.50000 
C          C       0.36821   0.28120   0.00000 
C          C       0.38838   0.29081   0.00000 
C          C       0.40232   0.25553   0.00000 
C          C       0.39656   0.20944   0.00000 
C          C       0.37639   0.20097   0.00000 
C          C       0.36292   0.23507   0.00000 
C          C       0.41136   0.17242   0.00000 
C          C       0.43140   0.18261   0.00000 
C          C       0.44532   0.14776   0.00000 
C          C       0.43936   0.10214   0.00000 
C          C       0.41950   0.09178   0.00000 
C          C       0.40565   0.12657   0.00000 
C          C       0.35359   0.31854   0.00000 
C          C       0.35954   0.36430   0.00000 
C          C       0.34572   0.39938   0.00000 
C          C       0.32579   0.38917   0.00000 
C          C       0.31978   0.34370   0.00000 
C          C       0.33354   0.30887   0.00000 
N          N       0.34394   0.21576   0.00000 
C          C       0.34741   0.17032   0.00000 
N          N       0.36656   0.15850   0.00000 
C          C       0.33163   0.13645   0.00000 
C          C       0.31207   0.15037   0.00000 
C          C       0.29709   0.11812   0.00000 
C          C       0.30157   0.07161   0.00000 
C          C       0.32107   0.05768   0.00000 
C          C       0.33604   0.08992   0.00000 
C          C       0.27779   0.45041   0.00000 
C          C       0.45343   0.06457   0.00000 
N          N       0.47212   0.07150   0.00000 
C          C       0.48603   0.03511   0.00000 
C          C       0.48016   0.98930   0.00000 
C          C       0.49406   0.95450   0.00000 
C          C       0.25836   0.43601   0.00000 
C          C       0.24323   0.46776   0.00000 
C          C       0.24738   0.51453   0.00000 
C          C       0.26683   0.52899   0.00000 
C          C       0.28200   0.49716   0.00000 
C          C       0.31136   0.42597   0.00000 
N          N       0.29285   0.41677   0.00000 
N          N       0.26787   0.04781   0.00000 
C          C       0.28621   0.03698   0.00000 
H          H       0.39335   0.32782   0.00000 
H          H       0.41856   0.26401   0.00000 
H          H       0.43628   0.21968   0.00000 
H          H       0.46154   0.15645   0.00000 
H          H       0.41452   0.05478   0.00000 
H          H       0.38943   0.11795   0.00000 
H          H       0.37578   0.37271   0.00000 
H          H       0.35072   0.43637   0.00000 
H          H       0.30356   0.33506   0.00000 
H          H       0.32858   0.27187   0.00000 
H          H       0.32871   0.22861   0.00000 
H          H       0.30840   0.18819   0.00000 
H          H       0.28120   0.12962   0.00000 
H          H       0.32480   0.01989   0.00000 
H          H       0.35193   0.07842   0.00000 
H          H       0.44805   0.02789   0.00000 
H          H       0.46397   0.98034   0.00000 
H          H       0.48918   0.91743   0.00000 
H          H       0.25490   0.39808   0.00000 
H          H       0.22740   0.45579   0.00000 
H          H       0.27038   0.56687   0.00000 
H          H       0.29782   0.50914   0.00000 
H          H       0.31638   0.46293   0.00000 
H          H       0.29026   0.99937   0.00000 
C          C       0.86821   0.28120   0.50000 
C          C       0.88838   0.29081   0.50000 
C          C       0.90232   0.25553   0.50000 
C          C       0.89656   0.20944   0.50000 
C          C       0.87639   0.20097   0.50000 
C          C       0.86292   0.23507   0.50000 
C          C       0.91136   0.17242   0.50000 
C          C       0.93140   0.18261   0.50000 
C          C       0.94532   0.14776   0.50000 
C          C       0.93936   0.10214   0.50000 
C          C       0.91950   0.09178   0.50000 
C          C       0.90565   0.12657   0.50000 
C          C       0.85359   0.31854   0.50000 
C          C       0.85954   0.36430   0.50000 
C          C       0.84572   0.39938   0.50000 
C          C       0.82579   0.38917   0.50000 
C          C       0.81978   0.34370   0.50000 
C          C       0.83354   0.30887   0.50000 
N          N       0.84394   0.21576   0.50000 
C          C       0.84741   0.17032   0.50000 
N          N       0.86656   0.15850   0.50000 
C          C       0.83163   0.13645   0.50000 
C          C       0.81207   0.15037   0.50000 
C          C       0.79709   0.11812   0.50000 
C          C       0.80157   0.07161   0.50000 
C          C       0.82107   0.05768   0.50000 
C          C       0.83604   0.08992   0.50000 
C          C       0.77779   0.45041   0.50000 
C          C       0.95343   0.06457   0.50000 
N          N       0.97212   0.07150   0.50000 
C          C       0.98603   0.03511   0.50000 
C          C       0.98016   0.98930   0.50000 
C          C       0.99406   0.95450   0.50000 
C          C       0.75836   0.43601   0.50000 
C          C       0.74323   0.46776   0.50000 
C          C       0.74738   0.51453   0.50000 
C          C       0.76683   0.52899   0.50000 
C          C       0.78200   0.49716   0.50000 
C          C       0.81136   0.42597   0.50000 
N          N       0.79285   0.41677   0.50000 
N          N       0.76787   0.04781   0.50000 
C          C       0.78621   0.03698   0.50000 
H          H       0.89335   0.32782   0.50000 
H          H       0.91856   0.26401   0.50000 
H          H       0.93628   0.21968   0.50000 
H          H       0.96154   0.15645   0.50000 
H          H       0.91452   0.05478   0.50000 
H          H       0.88943   0.11795   0.50000 
H          H       0.87578   0.37271   0.50000 
H          H       0.85072   0.43637   0.50000 
H          H       0.80356   0.33506   0.50000 
H          H       0.82858   0.27187   0.50000 
H          H       0.82871   0.22861   0.50000 
H          H       0.80840   0.18819   0.50000 
H          H       0.78120   0.12962   0.50000 
H          H       0.82480   0.01989   0.50000 
H          H       0.85193   0.07842   0.50000 
H          H       0.94805   0.02789   0.50000 
H          H       0.96397   0.98034   0.50000 
H          H       0.98918   0.91743   0.50000 
H          H       0.75490   0.39808   0.50000 
H          H       0.72740   0.45579   0.50000 
H          H       0.77038   0.56687   0.50000 
H          H       0.79782   0.50914   0.50000 
H          H       0.81638   0.46293   0.50000 
H          H       0.79026   0.99937   0.50000 
