data_crystal
 
_cell_length_a    30.14860
_cell_length_b    30.14860
_cell_length_c    7.07460
_cell_angle_alpha 90.00000
_cell_angle_beta  90.00000
_cell_angle_gamma 120.00000
 
_symmetry_space_group_name_Hall 'P 1'
_symmetry_space_group_name_H-M  'P 1'
 
loop_
_symmetry_equiv_pos_as_xyz
 'x,y,z' 
 
loop_
_atom_site_label
_atom_site_type_symbol
_atom_site_fract_x
_atom_site_fract_y
_atom_site_fract_z
_atom_site_charge
C          C       0.70406   0.31871   0.24999   0.0000000000
C          C       0.71963   0.37143   0.24999   0.0000000000
H          H       0.73148   0.30813   0.24999   0.0000000000
C          C       0.34820   0.71963   0.24999   0.0000000000
C          C       0.38535   0.70406   0.24999   0.0000000000
H          H       0.42335   0.73148   0.24999   0.0000000000
C          C       0.68129   0.38535   0.24999   0.0000000000
C          C       0.62857   0.34820   0.24999   0.0000000000
H          H       0.69187   0.42335   0.24999   0.0000000000
C          C       0.28037   0.62857   0.24999   0.0000000000
C          C       0.29594   0.68129   0.24999   0.0000000000
H          H       0.26852   0.69187   0.24999   0.0000000000
C          C       0.61465   0.29594   0.24999   0.0000000000
C          C       0.65180   0.28037   0.24999   0.0000000000
H          H       0.57665   0.26852   0.24999   0.0000000000
C          C       0.37143   0.65180   0.24999   0.0000000000
C          C       0.31871   0.61465   0.24999   0.0000000000
H          H       0.30813   0.57665   0.24999   0.0000000000
O          O       0.77177   0.40973   0.24999   0.0000000000
H          H       0.78113   0.44734   0.24999   0.0000000000
O          O       0.59027   0.36204   0.24999   0.0000000000
H          H       0.55266   0.33380   0.24999   0.0000000000
O          O       0.63796   0.22823   0.24999   0.0000000000
H          H       0.66620   0.21887   0.24999   0.0000000000
O          O       0.22823   0.59027   0.24999   0.0000000000
H          H       0.21887   0.55266   0.24999   0.0000000000
O          O       0.40973   0.63796   0.24999   0.0000000000
H          H       0.44734   0.66620   0.24999   0.0000000000
O          O       0.36204   0.77177   0.24999   0.0000000000
H          H       0.33380   0.78113   0.24999   0.0000000000
B          B       0.80951   0.39786   0.24999   0.0000000000
B          B       0.60214   0.41165   0.24999   0.0000000000
B          B       0.58835   0.19049   0.24999   0.0000000000
B          B       0.19049   0.60214   0.24999   0.0000000000
B          B       0.39786   0.58835   0.24999   0.0000000000
B          B       0.41165   0.80951   0.24999   0.0000000000
C          C       0.13883   0.57203   0.24999   0.0000000000
C          C       0.42797   0.56680   0.24999   0.0000000000
C          C       0.43320   0.86117   0.24999   0.0000000000
C          C       0.86117   0.42797   0.24999   0.0000000000
C          C       0.57203   0.43320   0.24999   0.0000000000
C          C       0.56680   0.13883   0.24999   0.0000000000
C          C       0.11010   0.59700   0.24999   0.0000000000
C          C       0.59396   0.11209   0.24999   0.0000000000
C          C       0.40300   0.51310   0.24999   0.0000000000
C          C       0.88791   0.48188   0.24999   0.0000000000
C          C       0.48690   0.88990   0.24999   0.0000000000
C          C       0.51812   0.40603   0.24999   0.0000000000
C          C       0.88990   0.40300   0.24999   0.0000000000
C          C       0.40603   0.88791   0.24999   0.0000000000
C          C       0.59700   0.48690   0.24999   0.0000000000
C          C       0.11209   0.51812   0.24999   0.0000000000
C          C       0.51310   0.11010   0.24999   0.0000000000
C          C       0.48188   0.59396   0.24999   0.0000000000
C          C       0.05816   0.49034   0.24999   0.0000000000
C          C       0.48725   0.05620   0.24999   0.0000000000
C          C       0.50966   0.56782   0.24999   0.0000000000
C          C       0.94380   0.43105   0.24999   0.0000000000
C          C       0.43218   0.94184   0.24999   0.0000000000
C          C       0.56895   0.51275   0.24999   0.0000000000
C          C       0.94184   0.50966   0.24999   0.0000000000
C          C       0.51275   0.94380   0.24999   0.0000000000
C          C       0.49034   0.43218   0.24999   0.0000000000
C          C       0.05620   0.56895   0.24999   0.0000000000
C          C       0.56782   0.05816   0.24999   0.0000000000
C          C       0.43105   0.48725   0.24999   0.0000000000
H          H       0.12853   0.63616   0.24999   0.0000000000
H          H       0.63302   0.13151   0.24999   0.0000000000
H          H       0.36384   0.49236   0.24999   0.0000000000
H          H       0.86849   0.50151   0.24999   0.0000000000
H          H       0.50764   0.87147   0.24999   0.0000000000
H          H       0.49849   0.36698   0.24999   0.0000000000
H          H       0.87147   0.36384   0.24999   0.0000000000
H          H       0.36698   0.86849   0.24999   0.0000000000
H          H       0.63616   0.50764   0.24999   0.0000000000
H          H       0.13151   0.49849   0.24999   0.0000000000
H          H       0.49236   0.12853   0.24999   0.0000000000
H          H       0.50151   0.63302   0.24999   0.0000000000
C          C       0.02759   0.51430   0.24999   0.0000000000
C          C       0.48570   0.51329   0.24999   0.0000000000
C          C       0.48671   0.97241   0.24999   0.0000000000
C          C       0.97241   0.48570   0.24999   0.0000000000
C          C       0.51430   0.48671   0.24999   0.0000000000
C          C       0.51329   0.02759   0.24999   0.0000000000
H          H       0.95768   0.54836   0.24999   0.0000000000
H          H       0.55158   0.96108   0.24999   0.0000000000
H          H       0.45164   0.40931   0.24999   0.0000000000
H          H       0.03892   0.59050   0.24999   0.0000000000
H          H       0.59069   0.04232   0.24999   0.0000000000
H          H       0.40950   0.44842   0.24999   0.0000000000
H          H       0.04232   0.45164   0.24999   0.0000000000
H          H       0.44842   0.03892   0.24999   0.0000000000
H          H       0.54836   0.59069   0.24999   0.0000000000
H          H       0.96108   0.40950   0.24999   0.0000000000
H          H       0.40931   0.95768   0.24999   0.0000000000
H          H       0.59050   0.55158   0.24999   0.0000000000
C          C       0.70406   0.31871   0.74999   0.0000000000
C          C       0.71963   0.37143   0.74999   0.0000000000
H          H       0.73148   0.30813   0.74999   0.0000000000
C          C       0.34820   0.71963   0.74999   0.0000000000
C          C       0.38535   0.70406   0.74999   0.0000000000
H          H       0.42335   0.73148   0.74999   0.0000000000
C          C       0.68129   0.38535   0.74999   0.0000000000
C          C       0.62857   0.34820   0.74999   0.0000000000
H          H       0.69187   0.42335   0.74999   0.0000000000
C          C       0.28037   0.62857   0.74999   0.0000000000
C          C       0.29594   0.68129   0.74999   0.0000000000
H          H       0.26852   0.69187   0.74999   0.0000000000
C          C       0.61465   0.29594   0.74999   0.0000000000
C          C       0.65180   0.28037   0.74999   0.0000000000
H          H       0.57665   0.26852   0.74999   0.0000000000
C          C       0.37143   0.65180   0.74999   0.0000000000
C          C       0.31871   0.61465   0.74999   0.0000000000
H          H       0.30813   0.57665   0.74999   0.0000000000
O          O       0.77177   0.40973   0.74999   0.0000000000
H          H       0.78113   0.44734   0.74999   0.0000000000
O          O       0.59027   0.36204   0.74999   0.0000000000
H          H       0.55266   0.33380   0.74999   0.0000000000
O          O       0.63796   0.22823   0.74999   0.0000000000
H          H       0.66620   0.21887   0.74999   0.0000000000
O          O       0.22823   0.59027   0.74999   0.0000000000
H          H       0.21887   0.55266   0.74999   0.0000000000
O          O       0.40973   0.63796   0.74999   0.0000000000
H          H       0.44734   0.66620   0.74999   0.0000000000
O          O       0.36204   0.77177   0.74999   0.0000000000
H          H       0.33380   0.78113   0.74999   0.0000000000
B          B       0.80951   0.39786   0.74999   0.0000000000
B          B       0.60214   0.41165   0.74999   0.0000000000
B          B       0.58835   0.19049   0.74999   0.0000000000
B          B       0.19049   0.60214   0.74999   0.0000000000
B          B       0.39786   0.58835   0.74999   0.0000000000
B          B       0.41165   0.80951   0.74999   0.0000000000
C          C       0.13883   0.57203   0.74999   0.0000000000
C          C       0.42797   0.56680   0.74999   0.0000000000
C          C       0.43320   0.86117   0.74999   0.0000000000
C          C       0.86117   0.42797   0.74999   0.0000000000
C          C       0.57203   0.43320   0.74999   0.0000000000
C          C       0.56680   0.13883   0.74999   0.0000000000
C          C       0.11010   0.59700   0.74999   0.0000000000
C          C       0.59396   0.11209   0.74999   0.0000000000
C          C       0.40300   0.51310   0.74999   0.0000000000
C          C       0.88791   0.48188   0.74999   0.0000000000
C          C       0.48690   0.88990   0.74999   0.0000000000
C          C       0.51812   0.40603   0.74999   0.0000000000
C          C       0.88990   0.40300   0.74999   0.0000000000
C          C       0.40603   0.88791   0.74999   0.0000000000
C          C       0.59700   0.48690   0.74999   0.0000000000
C          C       0.11209   0.51812   0.74999   0.0000000000
C          C       0.51310   0.11010   0.74999   0.0000000000
C          C       0.48188   0.59396   0.74999   0.0000000000
C          C       0.05816   0.49034   0.74999   0.0000000000
C          C       0.48725   0.05620   0.74999   0.0000000000
C          C       0.50966   0.56782   0.74999   0.0000000000
C          C       0.94380   0.43105   0.74999   0.0000000000
C          C       0.43218   0.94184   0.74999   0.0000000000
C          C       0.56895   0.51275   0.74999   0.0000000000
C          C       0.94184   0.50966   0.74999   0.0000000000
C          C       0.51275   0.94380   0.74999   0.0000000000
C          C       0.49034   0.43218   0.74999   0.0000000000
C          C       0.05620   0.56895   0.74999   0.0000000000
C          C       0.56782   0.05816   0.74999   0.0000000000
C          C       0.43105   0.48725   0.74999   0.0000000000
H          H       0.12853   0.63616   0.74999   0.0000000000
H          H       0.63302   0.13151   0.74999   0.0000000000
H          H       0.36384   0.49236   0.74999   0.0000000000
H          H       0.86849   0.50151   0.74999   0.0000000000
H          H       0.50764   0.87147   0.74999   0.0000000000
H          H       0.49849   0.36698   0.74999   0.0000000000
H          H       0.87147   0.36384   0.74999   0.0000000000
H          H       0.36698   0.86849   0.74999   0.0000000000
H          H       0.63616   0.50764   0.74999   0.0000000000
H          H       0.13151   0.49849   0.74999   0.0000000000
H          H       0.49236   0.12853   0.74999   0.0000000000
H          H       0.50151   0.63302   0.74999   0.0000000000
C          C       0.02759   0.51430   0.74999   0.0000000000
C          C       0.48570   0.51329   0.74999   0.0000000000
C          C       0.48671   0.97241   0.74999   0.0000000000
C          C       0.97241   0.48570   0.74999   0.0000000000
C          C       0.51430   0.48671   0.74999   0.0000000000
C          C       0.51329   0.02759   0.74999   0.0000000000
H          H       0.95768   0.54836   0.74999   0.0000000000
H          H       0.55158   0.96108   0.74999   0.0000000000
H          H       0.45164   0.40931   0.74999   0.0000000000
H          H       0.03892   0.59050   0.74999   0.0000000000
H          H       0.59069   0.04232   0.74999   0.0000000000
H          H       0.40950   0.44842   0.74999   0.0000000000
H          H       0.04232   0.45164   0.74999   0.0000000000
H          H       0.44842   0.03892   0.74999   0.0000000000
H          H       0.54836   0.59069   0.74999   0.0000000000
H          H       0.96108   0.40950   0.74999   0.0000000000
H          H       0.40931   0.95768   0.74999   0.0000000000
H          H       0.59050   0.55158   0.74999   0.0000000000
