data_crystal
 
_cell_length_a    47.88450
_cell_length_b    47.88450
_cell_length_c    3.53620
_cell_angle_alpha 90.00000
_cell_angle_beta  90.00000
_cell_angle_gamma 120.00000
 
_symmetry_space_group_name_Hall 'P 1'
_symmetry_space_group_name_H-M  'P 1'
 
loop_
_symmetry_equiv_pos_as_xyz
 'x,y,z' 
 
loop_
_atom_site_label
_atom_site_type_symbol
_atom_site_fract_x
_atom_site_fract_y
_atom_site_fract_z
_atom_site_charge
N          N       0.14334   0.58135   0.50000   0.0000000000
N          N       0.41865   0.56199   0.50000   0.0000000000
N          N       0.43801   0.85667   0.50000   0.0000000000
N          N       0.85667   0.41865   0.50000   0.0000000000
N          N       0.58135   0.43801   0.50000   0.0000000000
N          N       0.56199   0.14334   0.50000   0.0000000000
N          N       0.00953   0.51554   0.50000   0.0000000000
N          N       0.48446   0.49399   0.50000   0.0000000000
N          N       0.50601   0.99047   0.50000   0.0000000000
N          N       0.99047   0.48446   0.50000   0.0000000000
N          N       0.51554   0.50601   0.50000   0.0000000000
N          N       0.49399   0.00953   0.50000   0.0000000000
C          C       0.16621   0.61295   0.50000   0.0000000000
C          C       0.11074   0.56662   0.50000   0.0000000000
C          C       0.09276   0.58273   0.50000   0.0000000000
C          C       0.05878   0.56507   0.50000   0.0000000000
C          C       0.04210   0.53111   0.50000   0.0000000000
C          C       0.06003   0.51501   0.50000   0.0000000000
C          C       0.09400   0.53264   0.50000   0.0000000000
C          C       0.38705   0.55326   0.50000   0.0000000000
C          C       0.43338   0.54412   0.50000   0.0000000000
C          C       0.41728   0.51003   0.50000   0.0000000000
C          C       0.43493   0.49370   0.50000   0.0000000000
C          C       0.46889   0.51099   0.50000   0.0000000000
C          C       0.48500   0.54502   0.50000   0.0000000000
C          C       0.46736   0.56136   0.50000   0.0000000000
C          C       0.44674   0.83379   0.50000   0.0000000000
C          C       0.45588   0.88926   0.50000   0.0000000000
C          C       0.48997   0.90724   0.50000   0.0000000000
C          C       0.50630   0.94122   0.50000   0.0000000000
C          C       0.48901   0.95790   0.50000   0.0000000000
C          C       0.45498   0.93997   0.50000   0.0000000000
C          C       0.43864   0.90600   0.50000   0.0000000000
C          C       0.83379   0.38705   0.50000   0.0000000000
C          C       0.88926   0.43338   0.50000   0.0000000000
C          C       0.90724   0.41728   0.50000   0.0000000000
C          C       0.94122   0.43493   0.50000   0.0000000000
C          C       0.95790   0.46889   0.50000   0.0000000000
C          C       0.93997   0.48500   0.50000   0.0000000000
C          C       0.90600   0.46736   0.50000   0.0000000000
C          C       0.61295   0.44674   0.50000   0.0000000000
C          C       0.56662   0.45588   0.50000   0.0000000000
C          C       0.58273   0.48997   0.50000   0.0000000000
C          C       0.56507   0.50630   0.50000   0.0000000000
C          C       0.53111   0.48901   0.50000   0.0000000000
C          C       0.51501   0.45498   0.50000   0.0000000000
C          C       0.53264   0.43864   0.50000   0.0000000000
C          C       0.55326   0.16621   0.50000   0.0000000000
C          C       0.54412   0.11074   0.50000   0.0000000000
C          C       0.51003   0.09276   0.50000   0.0000000000
C          C       0.49370   0.05878   0.50000   0.0000000000
C          C       0.51099   0.04210   0.50000   0.0000000000
C          C       0.54502   0.06003   0.50000   0.0000000000
C          C       0.56136   0.09400   0.50000   0.0000000000
H          H       0.15936   0.63003   0.50000   0.0000000000
H          H       0.10408   0.60728   0.50000   0.0000000000
H          H       0.10662   0.52059   0.50000   0.0000000000
H          H       0.04610   0.57705   0.50000   0.0000000000
H          H       0.04827   0.49038   0.50000   0.0000000000
H          H       0.36997   0.52934   0.50000   0.0000000000
H          H       0.39272   0.49680   0.50000   0.0000000000
H          H       0.47941   0.58602   0.50000   0.0000000000
H          H       0.42295   0.46905   0.50000   0.0000000000
H          H       0.50962   0.55789   0.50000   0.0000000000
H          H       0.47067   0.84064   0.50000   0.0000000000
H          H       0.50320   0.89592   0.50000   0.0000000000
H          H       0.41398   0.89338   0.50000   0.0000000000
H          H       0.53095   0.95390   0.50000   0.0000000000
H          H       0.44211   0.95173   0.50000   0.0000000000
H          H       0.84064   0.36997   0.50000   0.0000000000
H          H       0.89592   0.39272   0.50000   0.0000000000
H          H       0.89338   0.47941   0.50000   0.0000000000
H          H       0.95390   0.42295   0.50000   0.0000000000
H          H       0.95173   0.50962   0.50000   0.0000000000
H          H       0.63003   0.47067   0.50000   0.0000000000
H          H       0.60728   0.50320   0.50000   0.0000000000
H          H       0.52059   0.41398   0.50000   0.0000000000
H          H       0.57705   0.53095   0.50000   0.0000000000
H          H       0.49038   0.44211   0.50000   0.0000000000
H          H       0.52934   0.15936   0.50000   0.0000000000
H          H       0.49680   0.10408   0.50000   0.0000000000
H          H       0.58602   0.10662   0.50000   0.0000000000
H          H       0.46905   0.04610   0.50000   0.0000000000
H          H       0.55789   0.04827   0.50000   0.0000000000
C          C       0.35534   0.69917   0.50000   0.0000000000
C          C       0.30083   0.65618   0.50000   0.0000000000
C          C       0.34382   0.64466   0.50000   0.0000000000
C          C       0.64466   0.30083   0.50000   0.0000000000
C          C       0.69917   0.34382   0.50000   0.0000000000
C          C       0.65618   0.35534   0.50000   0.0000000000
N          N       0.36487   0.67685   0.50000   0.0000000000
N          N       0.32315   0.68803   0.50000   0.0000000000
N          N       0.31197   0.63513   0.50000   0.0000000000
N          N       0.63513   0.32315   0.50000   0.0000000000
N          N       0.67685   0.31197   0.50000   0.0000000000
N          N       0.68803   0.36487   0.50000   0.0000000000
C          C       0.37796   0.73265   0.50000   0.0000000000
C          C       0.26735   0.64531   0.50000   0.0000000000
C          C       0.35469   0.62204   0.50000   0.0000000000
C          C       0.24415   0.61197   0.50000   0.0000000000
C          C       0.38803   0.63218   0.50000   0.0000000000
C          C       0.36782   0.75585   0.50000   0.0000000000
C          C       0.21088   0.60112   0.50000   0.0000000000
C          C       0.39888   0.60976   0.50000   0.0000000000
C          C       0.39024   0.78912   0.50000   0.0000000000
C          C       0.19941   0.62320   0.50000   0.0000000000
C          C       0.37680   0.57621   0.50000   0.0000000000
C          C       0.42379   0.80059   0.50000   0.0000000000
C          C       0.22242   0.65649   0.50000   0.0000000000
C          C       0.34351   0.56593   0.50000   0.0000000000
C          C       0.43407   0.77758   0.50000   0.0000000000
C          C       0.25567   0.66729   0.50000   0.0000000000
C          C       0.33271   0.58838   0.50000   0.0000000000
C          C       0.41162   0.74433   0.50000   0.0000000000
C          C       0.62204   0.26735   0.50000   0.0000000000
C          C       0.73265   0.35469   0.50000   0.0000000000
C          C       0.64531   0.37796   0.50000   0.0000000000
C          C       0.75585   0.38803   0.50000   0.0000000000
C          C       0.61197   0.36782   0.50000   0.0000000000
C          C       0.63218   0.24415   0.50000   0.0000000000
C          C       0.78912   0.39888   0.50000   0.0000000000
C          C       0.60112   0.39024   0.50000   0.0000000000
C          C       0.60976   0.21088   0.50000   0.0000000000
C          C       0.80059   0.37680   0.50000   0.0000000000
C          C       0.62320   0.42379   0.50000   0.0000000000
C          C       0.57621   0.19941   0.50000   0.0000000000
C          C       0.77758   0.34351   0.50000   0.0000000000
C          C       0.65649   0.43407   0.50000   0.0000000000
C          C       0.56593   0.22242   0.50000   0.0000000000
C          C       0.74433   0.33271   0.50000   0.0000000000
C          C       0.66729   0.41162   0.50000   0.0000000000
C          C       0.58838   0.25567   0.50000   0.0000000000
H          H       0.25129   0.59509   0.50000   0.0000000000
H          H       0.40492   0.65620   0.50000   0.0000000000
H          H       0.34380   0.74871   0.50000   0.0000000000
H          H       0.19502   0.57683   0.50000   0.0000000000
H          H       0.42317   0.61819   0.50000   0.0000000000
H          H       0.38181   0.80498   0.50000   0.0000000000
H          H       0.21519   0.67332   0.50000   0.0000000000
H          H       0.32668   0.54188   0.50000   0.0000000000
H          H       0.45812   0.78481   0.50000   0.0000000000
H          H       0.27136   0.69163   0.50000   0.0000000000
H          H       0.30837   0.57974   0.50000   0.0000000000
H          H       0.42026   0.72864   0.50000   0.0000000000
H          H       0.74871   0.40492   0.50000   0.0000000000
H          H       0.59509   0.34380   0.50000   0.0000000000
H          H       0.65620   0.25129   0.50000   0.0000000000
H          H       0.80498   0.42317   0.50000   0.0000000000
H          H       0.57683   0.38181   0.50000   0.0000000000
H          H       0.61819   0.19502   0.50000   0.0000000000
H          H       0.78481   0.32668   0.50000   0.0000000000
H          H       0.67332   0.45812   0.50000   0.0000000000
H          H       0.54188   0.21519   0.50000   0.0000000000
H          H       0.72864   0.30837   0.50000   0.0000000000
H          H       0.69163   0.42026   0.50000   0.0000000000
H          H       0.57974   0.27136   0.50000   0.0000000000
