data_crystal

_cell_length_a    25.80270
_cell_length_b    25.80270
_cell_length_c    6.94000
_cell_angle_alpha 90.00000
_cell_angle_beta  90.00000
_cell_angle_gamma 120.00000

_space_group_name_Hall 'P 1'
_space_group_name_H-M_alt  'P 1'

loop_
_symmetry_equiv_pos_as_xyz
'x,y,z' 

loop_
_atom_site_label
_atom_site_type_symbol
_atom_site_fract_x
_atom_site_fract_y
_atom_site_fract_z
C          C       0.72818   0.36147   0.25375 
C          C       0.27264   0.62724   0.25375 
C          C       0.63853   0.36672   0.25375 
C          C       0.37276   0.64540   0.25375 
C          C       0.63328   0.27181   0.25375 
C          C       0.35460   0.72736   0.25375 
N          N       0.69396   0.30095   0.25375 
N          N       0.29508   0.68730   0.25375 
N          N       0.69905   0.39301   0.25375 
N          N       0.31270   0.60779   0.25375 
N          N       0.60699   0.30604   0.25375 
N          N       0.39221   0.70491   0.25375 
C          C       0.21017   0.58665   0.25375 
C          C       0.79151   0.39043   0.25375 
C          C       0.41335   0.62352   0.25375 
C          C       0.60957   0.40108   0.25375 
C          C       0.37648   0.78982   0.25375 
C          C       0.59891   0.20848   0.25375 
C          C       0.16840   0.60711   0.25375 
C          C       0.82184   0.35728   0.25375 
C          C       0.62658   0.17282   0.25375 
C          C       0.33702   0.81313   0.25375 
C          C       0.39289   0.56128   0.25375 
C          C       0.64272   0.46456   0.25375 
C          C       0.82718   0.45375   0.25375 
C          C       0.18687   0.52390   0.25375 
C          C       0.43871   0.83160   0.25375 
C          C       0.53544   0.17816   0.25375 
C          C       0.54625   0.37342   0.25375 
C          C       0.47610   0.66297   0.25375 
C          C       0.10636   0.56681   0.25375 
C          C       0.88477   0.38602   0.25375 
C          C       0.59235   0.10991   0.25375 
C          C       0.35870   0.87516   0.25375 
C          C       0.43319   0.53955   0.25375 
C          C       0.61398   0.49875   0.25375 
C          C       0.89009   0.48244   0.25375 
C          C       0.12484   0.48353   0.25375 
C          C       0.46045   0.89364   0.25375 
C          C       0.50125   0.11523   0.25375 
C          C       0.51756   0.40765   0.25375 
C          C       0.51646   0.64130   0.25375 
C          C       0.08344   0.50427   0.25375 
C          C       0.91966   0.44908   0.25375 
C          C       0.49573   0.57917   0.25375 
C          C       0.55092   0.47058   0.25375 
C          C       0.42083   0.91656   0.25375 
C          C       0.52942   0.08034   0.25375 
N          N       0.50051   0.01977   0.25375 
C          C       0.44147   0.97851   0.25375 
N          N       0.98023   0.48074   0.25375 
C          C       0.02149   0.46296   0.25375 
N          N       0.51926   0.49949   0.25375 
C          C       0.53704   0.55853   0.25375 
H          H       0.18272   0.65193   0.25375 
H          H       0.79830   0.31149   0.25375 
H          H       0.67220   0.19231   0.25375 
H          H       0.29167   0.78499   0.25375 
H          H       0.34807   0.53079   0.25375 
H          H       0.68851   0.48681   0.25375 
H          H       0.80769   0.47989   0.25375 
H          H       0.21501   0.50669   0.25375 
H          H       0.46921   0.81728   0.25375 
H          H       0.51319   0.20170   0.25375 
H          H       0.52011   0.32779   0.25375 
H          H       0.49331   0.70832   0.25375 
H          H       0.07794   0.58368   0.25375 
H          H       0.90467   0.36042   0.25375 
H          H       0.61360   0.08543   0.25375 
H          H       0.32841   0.88976   0.25375 
H          H       0.41632   0.49426   0.25375 
H          H       0.63958   0.54425   0.25375 
H          H       0.91457   0.52817   0.25375 
H          H       0.11023   0.43864   0.25375 
H          H       0.50574   0.92206   0.25375 
H          H       0.45575   0.09533   0.25375 
H          H       0.47182   0.38640   0.25375 
H          H       0.56136   0.67159   0.25375 
H          H       0.41070   0.99241   0.25375 
H          H       0.00758   0.41829   0.25375 
H          H       0.58171   0.58929   0.25375 
C          C       0.72818   0.36147   0.75375 
C          C       0.27264   0.62724   0.75375 
C          C       0.63853   0.36672   0.75375 
C          C       0.37276   0.64540   0.75375 
C          C       0.63328   0.27181   0.75375 
C          C       0.35460   0.72736   0.75375 
N          N       0.69396   0.30095   0.75375 
N          N       0.29508   0.68730   0.75375 
N          N       0.69905   0.39301   0.75375 
N          N       0.31270   0.60779   0.75375 
N          N       0.60699   0.30604   0.75375 
N          N       0.39221   0.70491   0.75375 
C          C       0.21017   0.58665   0.75375 
C          C       0.79151   0.39043   0.75375 
C          C       0.41335   0.62352   0.75375 
C          C       0.60957   0.40108   0.75375 
C          C       0.37648   0.78982   0.75375 
C          C       0.59891   0.20848   0.75375 
C          C       0.16840   0.60711   0.75375 
C          C       0.82184   0.35728   0.75375 
C          C       0.62658   0.17282   0.75375 
C          C       0.33702   0.81313   0.75375 
C          C       0.39289   0.56128   0.75375 
C          C       0.64272   0.46456   0.75375 
C          C       0.82718   0.45375   0.75375 
C          C       0.18687   0.52390   0.75375 
C          C       0.43871   0.83160   0.75375 
C          C       0.53544   0.17816   0.75375 
C          C       0.54625   0.37342   0.75375 
C          C       0.47610   0.66297   0.75375 
C          C       0.10636   0.56681   0.75375 
C          C       0.88477   0.38602   0.75375 
C          C       0.59235   0.10991   0.75375 
C          C       0.35870   0.87516   0.75375 
C          C       0.43319   0.53955   0.75375 
C          C       0.61398   0.49875   0.75375 
C          C       0.89009   0.48244   0.75375 
C          C       0.12484   0.48353   0.75375 
C          C       0.46045   0.89364   0.75375 
C          C       0.50125   0.11523   0.75375 
C          C       0.51756   0.40765   0.75375 
C          C       0.51646   0.64130   0.75375 
C          C       0.08344   0.50427   0.75375 
C          C       0.91966   0.44908   0.75375 
C          C       0.49573   0.57917   0.75375 
C          C       0.55092   0.47058   0.75375 
C          C       0.42083   0.91656   0.75375 
C          C       0.52942   0.08034   0.75375 
N          N       0.50051   0.01977   0.75375 
C          C       0.44147   0.97851   0.75375 
N          N       0.98023   0.48074   0.75375 
C          C       0.02149   0.46296   0.75375 
N          N       0.51926   0.49949   0.75375 
C          C       0.53704   0.55853   0.75375 
H          H       0.18272   0.65193   0.75375 
H          H       0.79830   0.31149   0.75375 
H          H       0.67220   0.19231   0.75375 
H          H       0.29167   0.78499   0.75375 
H          H       0.34807   0.53079   0.75375 
H          H       0.68851   0.48681   0.75375 
H          H       0.80769   0.47989   0.75375 
H          H       0.21501   0.50669   0.75375 
H          H       0.46921   0.81728   0.75375 
H          H       0.51319   0.20170   0.75375 
H          H       0.52011   0.32779   0.75375 
H          H       0.49331   0.70832   0.75375 
H          H       0.07794   0.58368   0.75375 
H          H       0.90467   0.36042   0.75375 
H          H       0.61360   0.08543   0.75375 
H          H       0.32841   0.88976   0.75375 
H          H       0.41632   0.49426   0.75375 
H          H       0.63958   0.54425   0.75375 
H          H       0.91457   0.52817   0.75375 
H          H       0.11023   0.43864   0.75375 
H          H       0.50574   0.92206   0.75375 
H          H       0.45575   0.09533   0.75375 
H          H       0.47182   0.38640   0.75375 
H          H       0.56136   0.67159   0.75375 
H          H       0.41070   0.99241   0.75375 
H          H       0.00758   0.41829   0.75375 
H          H       0.58171   0.58929   0.75375 
