data_crystal
 
_cell_length_a    26.56140
_cell_length_b    26.56140
_cell_length_c    26.56140
_cell_angle_alpha 90.00000
_cell_angle_beta  90.00000
_cell_angle_gamma 90.00000
 
_symmetry_space_group_name_Hall 'P 1'
_symmetry_space_group_name_H-M  'P 1'
 
loop_
_symmetry_equiv_pos_as_xyz
 'x,y,z' 
 
loop_
_atom_site_label
_atom_site_type_symbol
_atom_site_fract_x
_atom_site_fract_y
_atom_site_fract_z
B          B       0.19446   0.81561   0.74458 
C          C       0.94848   0.40288   0.90100 
O          O       0.83334   0.22926   0.76039 
N          N       0.06456   0.06688   0.43410 
C          C       0.03396   0.03365   0.46599 
H          H       0.02454   0.52310   0.09233 
H          H       0.02422   0.40780   0.97655 
H          H       0.90831   0.52378   0.97613 
C          C       0.82842   0.15077   0.70179 
C          C       0.80993   0.10195   0.69363 
C          C       0.83318   0.07025   0.65867 
C          C       0.87476   0.08704   0.63078 
C          C       0.86938   0.16804   0.67317 
C          C       0.89219   0.13653   0.63768 
H          H       0.98818   0.39996   0.89213 
H          H       0.77845   0.08760   0.71524 
H          H       0.81914   0.03224   0.65396 
H          H       0.88436   0.20557   0.67869 
H          H       0.92434   0.15040   0.61679 
B          B       0.80554   0.18439   0.74458 
C          C       0.05152   0.59712   0.90100 
O          O       0.16666   0.77074   0.76039 
N          N       0.93544   0.93312   0.43410 
C          C       0.96604   0.96635   0.46599 
H          H       0.97546   0.47690   0.09233 
H          H       0.97578   0.59220   0.97655 
H          H       0.09169   0.47622   0.97613 
C          C       0.17158   0.84923   0.70179 
C          C       0.19007   0.89805   0.69363 
C          C       0.16682   0.92975   0.65867 
C          C       0.12524   0.91296   0.63078 
C          C       0.13062   0.83196   0.67317 
C          C       0.10781   0.86347   0.63768 
H          H       0.01182   0.60004   0.89213 
H          H       0.22155   0.91240   0.71524 
H          H       0.18086   0.96776   0.65396 
H          H       0.11564   0.79443   0.67869 
H          H       0.07566   0.84960   0.61679 
B          B       0.80554   0.81561   0.25542 
C          C       0.05152   0.40288   0.09900 
O          O       0.16666   0.22926   0.23961 
N          N       0.93544   0.06688   0.56590 
C          C       0.96604   0.03365   0.53401 
H          H       0.97546   0.52310   0.90767 
H          H       0.97578   0.40780   0.02345 
H          H       0.09169   0.52378   0.02387 
C          C       0.17158   0.15077   0.29821 
C          C       0.19007   0.10195   0.30637 
C          C       0.16682   0.07025   0.34133 
C          C       0.12524   0.08704   0.36922 
C          C       0.13062   0.16804   0.32683 
C          C       0.10781   0.13653   0.36232 
H          H       0.01182   0.39996   0.10787 
H          H       0.22155   0.08760   0.28476 
H          H       0.18086   0.03224   0.34604 
H          H       0.11564   0.20557   0.32131 
H          H       0.07566   0.15040   0.38321 
B          B       0.19446   0.18439   0.25542 
C          C       0.94848   0.59712   0.09900 
O          O       0.83334   0.77074   0.23961 
N          N       0.06456   0.93312   0.56590 
C          C       0.03396   0.96635   0.53401 
H          H       0.02454   0.47690   0.90767 
H          H       0.02422   0.59220   0.02345 
H          H       0.90831   0.47622   0.02387 
C          C       0.82842   0.84923   0.29821 
C          C       0.80993   0.89805   0.30637 
C          C       0.83318   0.92975   0.34133 
C          C       0.87476   0.91296   0.36922 
C          C       0.86938   0.83196   0.32683 
C          C       0.89219   0.86347   0.36232 
H          H       0.98818   0.60004   0.10787 
H          H       0.77845   0.91240   0.28476 
H          H       0.81914   0.96776   0.34604 
H          H       0.88436   0.79443   0.32131 
H          H       0.92434   0.84960   0.38321 
B          B       0.74458   0.19446   0.81561 
C          C       0.90100   0.94848   0.40288 
O          O       0.76039   0.83334   0.22926 
N          N       0.43410   0.06456   0.06688 
C          C       0.46599   0.03396   0.03365 
H          H       0.09233   0.02454   0.52310 
H          H       0.97655   0.02422   0.40780 
H          H       0.97613   0.90831   0.52378 
C          C       0.70179   0.82842   0.15077 
C          C       0.69363   0.80993   0.10195 
C          C       0.65867   0.83318   0.07025 
C          C       0.63078   0.87476   0.08704 
C          C       0.67317   0.86938   0.16804 
C          C       0.63768   0.89219   0.13653 
H          H       0.89213   0.98818   0.39996 
H          H       0.71524   0.77845   0.08760 
H          H       0.65396   0.81914   0.03224 
H          H       0.67869   0.88436   0.20557 
H          H       0.61679   0.92434   0.15040 
B          B       0.74458   0.80554   0.18439 
C          C       0.90100   0.05152   0.59712 
O          O       0.76039   0.16666   0.77074 
N          N       0.43410   0.93544   0.93312 
C          C       0.46599   0.96604   0.96635 
H          H       0.09233   0.97546   0.47690 
H          H       0.97655   0.97578   0.59220 
H          H       0.97613   0.09169   0.47622 
C          C       0.70179   0.17158   0.84923 
C          C       0.69363   0.19007   0.89805 
C          C       0.65867   0.16682   0.92975 
C          C       0.63078   0.12524   0.91296 
C          C       0.67317   0.13062   0.83196 
C          C       0.63768   0.10781   0.86347 
H          H       0.89213   0.01182   0.60004 
H          H       0.71524   0.22155   0.91240 
H          H       0.65396   0.18086   0.96776 
H          H       0.67869   0.11564   0.79443 
H          H       0.61679   0.07566   0.84960 
B          B       0.25542   0.80554   0.81561 
C          C       0.09900   0.05152   0.40288 
O          O       0.23961   0.16666   0.22926 
N          N       0.56590   0.93544   0.06688 
C          C       0.53401   0.96604   0.03365 
H          H       0.90767   0.97546   0.52310 
H          H       0.02345   0.97578   0.40780 
H          H       0.02387   0.09169   0.52378 
C          C       0.29821   0.17158   0.15077 
C          C       0.30637   0.19007   0.10195 
C          C       0.34133   0.16682   0.07025 
C          C       0.36922   0.12524   0.08704 
C          C       0.32683   0.13062   0.16804 
C          C       0.36232   0.10781   0.13653 
H          H       0.10787   0.01182   0.39996 
H          H       0.28476   0.22155   0.08760 
H          H       0.34604   0.18086   0.03224 
H          H       0.32131   0.11564   0.20557 
H          H       0.38321   0.07566   0.15040 
B          B       0.25542   0.19446   0.18439 
C          C       0.09900   0.94848   0.59712 
O          O       0.23961   0.83334   0.77074 
N          N       0.56590   0.06456   0.93312 
C          C       0.53401   0.03396   0.96635 
H          H       0.90767   0.02454   0.47690 
H          H       0.02345   0.02422   0.59220 
H          H       0.02387   0.90831   0.47622 
C          C       0.29821   0.82842   0.84923 
C          C       0.30637   0.80993   0.89805 
C          C       0.34133   0.83318   0.92975 
C          C       0.36922   0.87476   0.91296 
C          C       0.32683   0.86938   0.83196 
C          C       0.36232   0.89219   0.86347 
H          H       0.10787   0.98818   0.60004 
H          H       0.28476   0.77845   0.91240 
H          H       0.34604   0.81914   0.96776 
H          H       0.32131   0.88436   0.79443 
H          H       0.38321   0.92434   0.84960 
B          B       0.81561   0.74458   0.19446 
C          C       0.40288   0.90100   0.94848 
O          O       0.22926   0.76039   0.83334 
N          N       0.06688   0.43410   0.06456 
C          C       0.03365   0.46599   0.03396 
H          H       0.52310   0.09233   0.02454 
H          H       0.40780   0.97655   0.02422 
H          H       0.52378   0.97613   0.90831 
C          C       0.15077   0.70179   0.82842 
C          C       0.10195   0.69363   0.80993 
C          C       0.07025   0.65867   0.83318 
C          C       0.08704   0.63078   0.87476 
C          C       0.16804   0.67317   0.86938 
C          C       0.13653   0.63768   0.89219 
H          H       0.39996   0.89213   0.98818 
H          H       0.08760   0.71524   0.77845 
H          H       0.03224   0.65396   0.81914 
H          H       0.20557   0.67869   0.88436 
H          H       0.15040   0.61679   0.92434 
B          B       0.18439   0.74458   0.80554 
C          C       0.59712   0.90100   0.05152 
O          O       0.77074   0.76039   0.16666 
N          N       0.93312   0.43410   0.93544 
C          C       0.96635   0.46599   0.96604 
H          H       0.47690   0.09233   0.97546 
H          H       0.59220   0.97655   0.97578 
H          H       0.47622   0.97613   0.09169 
C          C       0.84923   0.70179   0.17158 
C          C       0.89805   0.69363   0.19007 
C          C       0.92975   0.65867   0.16682 
C          C       0.91296   0.63078   0.12524 
C          C       0.83196   0.67317   0.13062 
C          C       0.86347   0.63768   0.10781 
H          H       0.60004   0.89213   0.01182 
H          H       0.91240   0.71524   0.22155 
H          H       0.96776   0.65396   0.18086 
H          H       0.79443   0.67869   0.11564 
H          H       0.84960   0.61679   0.07566 
B          B       0.81561   0.25542   0.80554 
C          C       0.40288   0.09900   0.05152 
O          O       0.22926   0.23961   0.16666 
N          N       0.06688   0.56590   0.93544 
C          C       0.03365   0.53401   0.96604 
H          H       0.52310   0.90767   0.97546 
H          H       0.40780   0.02345   0.97578 
H          H       0.52378   0.02387   0.09169 
C          C       0.15077   0.29821   0.17158 
C          C       0.10195   0.30637   0.19007 
C          C       0.07025   0.34133   0.16682 
C          C       0.08704   0.36922   0.12524 
C          C       0.16804   0.32683   0.13062 
C          C       0.13653   0.36232   0.10781 
H          H       0.39996   0.10787   0.01182 
H          H       0.08760   0.28476   0.22155 
H          H       0.03224   0.34604   0.18086 
H          H       0.20557   0.32131   0.11564 
H          H       0.15040   0.38321   0.07566 
B          B       0.18439   0.25542   0.19446 
C          C       0.59712   0.09900   0.94848 
O          O       0.77074   0.23961   0.83334 
N          N       0.93312   0.56590   0.06456 
C          C       0.96635   0.53401   0.03396 
H          H       0.47690   0.90767   0.02454 
H          H       0.59220   0.02345   0.02422 
H          H       0.47622   0.02387   0.90831 
C          C       0.84923   0.29821   0.82842 
C          C       0.89805   0.30637   0.80993 
C          C       0.92975   0.34133   0.83318 
C          C       0.91296   0.36922   0.87476 
C          C       0.83196   0.32683   0.86938 
C          C       0.86347   0.36232   0.89219 
H          H       0.60004   0.10787   0.98818 
H          H       0.91240   0.28476   0.77845 
H          H       0.96776   0.34604   0.81914 
H          H       0.79443   0.32131   0.88436 
H          H       0.84960   0.38321   0.92434 
C          C       0.00000   0.00000   0.43266 
C          C       0.00000   0.00000   0.56734 
C          C       0.43266   0.00000   0.00000 
C          C       0.56734   0.00000   0.00000 
C          C       0.00000   0.43266   0.00000 
C          C       0.00000   0.56734   0.00000 
C          C       0.00000   0.06676   0.50000 
C          C       0.00000   0.93324   0.50000 
C          C       0.50000   0.00000   0.06676 
C          C       0.50000   0.00000   0.93324 
C          C       0.06676   0.50000   0.00000 
C          C       0.93324   0.50000   0.00000 
C          C       0.06755   0.00000   0.50000 
C          C       0.93245   0.00000   0.50000 
C          C       0.50000   0.06755   0.00000 
C          C       0.50000   0.93245   0.00000 
C          C       0.00000   0.50000   0.06755 
C          C       0.00000   0.50000   0.93245 
