data_crystal

_cell_length_a    22.82570
_cell_length_b    22.69950
_cell_length_c    6.96080
_cell_angle_alpha 90.00000
_cell_angle_beta  90.00000
_cell_angle_gamma 120.39750

_space_group_name_Hall 'P 1'
_space_group_name_H-M_alt  'P 1'

loop_
_symmetry_equiv_pos_as_xyz
'x,y,z' 

loop_
_atom_site_label
_atom_site_type_symbol
_atom_site_fract_x
_atom_site_fract_y
_atom_site_fract_z
O          O       0.28061   0.53096   0.25000 
N          N       0.40523   0.54497   0.25000 
C          C       0.30610   0.59462   0.25000 
C          C       0.37804   0.63751   0.25000 
C          C       0.42368   0.61190   0.25000 
C          C       0.44704   0.51888   0.25000 
C          C       0.41781   0.44741   0.25000 
N          N       0.51595   0.55855   0.25000 
H          H       0.36617   0.41596   0.25000 
H          H       0.47478   0.64613   0.25000 
H          H       0.35730   0.51224   0.25000 
O          O       0.46810   0.74768   0.25000 
N          N       0.45500   0.85943   0.25000 
C          C       0.40472   0.70939   0.25000 
C          C       0.36240   0.73874   0.25000 
C          C       0.38831   0.81062   0.25000 
C          C       0.48141   0.92794   0.25000 
C          C       0.55254   0.97045   0.25000 
N          N       0.44238   0.95754   0.25000 
H          H       0.58352   0.95001   0.25000 
H          H       0.35453   0.82768   0.25000 
H          H       0.48726   0.84398   0.25000 
O          O       0.25290   0.71846   0.25000 
N          N       0.14081   0.59180   0.25000 
C          C       0.29080   0.69327   0.25000 
C          C       0.26121   0.62100   0.25000 
C          C       0.18968   0.57451   0.25000 
C          C       0.07217   0.55007   0.25000 
C          C       0.03241   0.58161   0.25000 
C          C       0.03698   0.47779   0.25000 
H          H       0.05535   0.63376   0.25000 
H          H       0.17330   0.52359   0.25000 
H          H       0.06172   0.45097   0.25000 
H          H       0.15674   0.64001   0.25000 
O          O       0.70784   0.46774   0.25000 
N          N       0.57753   0.43999   0.25000 
C          C       0.68811   0.40510   0.25000 
C          C       0.61720   0.35662   0.25000 
C          C       0.56614   0.37525   0.25000 
C          C       0.53169   0.46146   0.25000 
C          C       0.55809   0.53270   0.25000 
C          C       0.46007   0.41899   0.25000 
H          H       0.60934   0.56601   0.25000 
H          H       0.51662   0.33696   0.25000 
H          H       0.43749   0.36707   0.25000 
H          H       0.62447   0.47572   0.25000 
O          O       0.53478   0.24281   0.25000 
N          N       0.56127   0.13921   0.25000 
C          C       0.59714   0.28611   0.25000 
C          C       0.64490   0.26335   0.25000 
C          C       0.62583   0.19298   0.25000 
C          C       0.53947   0.07129   0.25000 
C          C       0.46854   0.02615   0.25000 
C          C       0.58128   0.04178   0.25000 
H          H       0.43570   0.04432   0.25000 
H          H       0.66362   0.18153   0.25000 
H          H       0.63294   0.07130   0.25000 
H          H       0.52596   0.15057   0.25000 
O          O       0.75761   0.29460   0.25000 
N          N       0.86104   0.42520   0.25000 
C          C       0.71511   0.31421   0.25000 
C          C       0.73831   0.38546   0.25000 
C          C       0.80848   0.43705   0.25000 
C          C       0.92868   0.47049   0.25000 
N          N       0.96818   0.44164   0.25000 
C          C       0.96098   0.54253   0.25000 
H          H       0.82078   0.48698   0.25000 
H          H       0.93381   0.56698   0.25000 
H          H       0.84889   0.37799   0.25000 
O          O       0.28061   0.53096   0.75000 
N          N       0.40523   0.54497   0.75000 
C          C       0.30610   0.59462   0.75000 
C          C       0.37804   0.63751   0.75000 
C          C       0.42368   0.61190   0.75000 
C          C       0.44704   0.51888   0.75000 
C          C       0.41781   0.44741   0.75000 
N          N       0.51595   0.55855   0.75000 
H          H       0.36617   0.41596   0.75000 
H          H       0.47478   0.64613   0.75000 
H          H       0.35730   0.51224   0.75000 
O          O       0.46810   0.74768   0.75000 
N          N       0.45500   0.85943   0.75000 
C          C       0.40472   0.70939   0.75000 
C          C       0.36240   0.73874   0.75000 
C          C       0.38831   0.81062   0.75000 
C          C       0.48141   0.92794   0.75000 
C          C       0.55254   0.97045   0.75000 
N          N       0.44238   0.95754   0.75000 
H          H       0.58352   0.95001   0.75000 
H          H       0.35453   0.82768   0.75000 
H          H       0.48726   0.84398   0.75000 
O          O       0.25290   0.71846   0.75000 
N          N       0.14081   0.59180   0.75000 
C          C       0.29080   0.69327   0.75000 
C          C       0.26121   0.62100   0.75000 
C          C       0.18968   0.57451   0.75000 
C          C       0.07217   0.55007   0.75000 
C          C       0.03241   0.58161   0.75000 
C          C       0.03698   0.47779   0.75000 
H          H       0.05535   0.63376   0.75000 
H          H       0.17330   0.52359   0.75000 
H          H       0.06172   0.45097   0.75000 
H          H       0.15674   0.64001   0.75000 
O          O       0.70784   0.46774   0.75000 
N          N       0.57753   0.43999   0.75000 
C          C       0.68811   0.40510   0.75000 
C          C       0.61720   0.35662   0.75000 
C          C       0.56614   0.37525   0.75000 
C          C       0.53169   0.46146   0.75000 
C          C       0.55809   0.53270   0.75000 
C          C       0.46007   0.41899   0.75000 
H          H       0.60934   0.56601   0.75000 
H          H       0.51662   0.33696   0.75000 
H          H       0.43749   0.36707   0.75000 
H          H       0.62447   0.47572   0.75000 
O          O       0.53478   0.24281   0.75000 
N          N       0.56127   0.13921   0.75000 
C          C       0.59714   0.28611   0.75000 
C          C       0.64490   0.26335   0.75000 
C          C       0.62583   0.19298   0.75000 
C          C       0.53947   0.07129   0.75000 
C          C       0.46854   0.02615   0.75000 
C          C       0.58128   0.04178   0.75000 
H          H       0.43570   0.04432   0.75000 
H          H       0.66362   0.18153   0.75000 
H          H       0.63294   0.07130   0.75000 
H          H       0.52596   0.15057   0.75000 
O          O       0.75761   0.29460   0.75000 
N          N       0.86104   0.42520   0.75000 
C          C       0.71511   0.31421   0.75000 
C          C       0.73831   0.38546   0.75000 
C          C       0.80848   0.43705   0.75000 
C          C       0.92868   0.47049   0.75000 
N          N       0.96818   0.44164   0.75000 
C          C       0.96098   0.54253   0.75000 
H          H       0.82078   0.48698   0.75000 
H          H       0.93381   0.56698   0.75000 
H          H       0.84889   0.37799   0.75000 
