data_crystal
 
_cell_length_a    37.46650
_cell_length_b    37.46650
_cell_length_c    3.63330
_cell_angle_alpha 90.00000
_cell_angle_beta  90.00000
_cell_angle_gamma 120.00000
 
_symmetry_space_group_name_Hall 'P 1'
_symmetry_space_group_name_H-M  'P 1'
 
loop_
_symmetry_equiv_pos_as_xyz
 'x,y,z' 
 
loop_
_atom_site_label
_atom_site_type_symbol
_atom_site_fract_x
_atom_site_fract_y
_atom_site_fract_z
_atom_site_charge
C          C       0.88708   0.47364   0.50000   0.0000000000
C          C       0.52636   0.41344   0.50000   0.0000000000
C          C       0.58656   0.11292   0.50000   0.0000000000
C          C       0.11292   0.52636   0.50000   0.0000000000
C          C       0.47364   0.58656   0.50000   0.0000000000
C          C       0.41344   0.88708   0.50000   0.0000000000
N          N       0.91457   0.46027   0.50000   0.0000000000
N          N       0.53973   0.45430   0.50000   0.0000000000
N          N       0.54570   0.08543   0.50000   0.0000000000
N          N       0.08543   0.53973   0.50000   0.0000000000
N          N       0.46027   0.54570   0.50000   0.0000000000
N          N       0.45430   0.91457   0.50000   0.0000000000
C          C       0.95629   0.48103   0.50000   0.0000000000
C          C       0.97553   0.45691   0.50000   0.0000000000
H          H       0.89746   0.50459   0.50000   0.0000000000
H          H       0.95815   0.42541   0.50000   0.0000000000
C          C       0.51897   0.47526   0.50000   0.0000000000
C          C       0.54309   0.51862   0.50000   0.0000000000
C          C       0.52444   0.54317   0.50000   0.0000000000
H          H       0.49541   0.39287   0.50000   0.0000000000
H          H       0.57459   0.53274   0.50000   0.0000000000
H          H       0.54295   0.57445   0.50000   0.0000000000
C          C       0.52474   0.04371   0.50000   0.0000000000
C          C       0.48138   0.02447   0.50000   0.0000000000
H          H       0.60713   0.10254   0.50000   0.0000000000
H          H       0.46726   0.04185   0.50000   0.0000000000
C          C       0.04371   0.51897   0.50000   0.0000000000
C          C       0.02447   0.54309   0.50000   0.0000000000
H          H       0.10254   0.49541   0.50000   0.0000000000
H          H       0.04185   0.57459   0.50000   0.0000000000
C          C       0.48103   0.52474   0.50000   0.0000000000
C          C       0.45691   0.48138   0.50000   0.0000000000
C          C       0.47556   0.45683   0.50000   0.0000000000
H          H       0.50459   0.60713   0.50000   0.0000000000
H          H       0.42541   0.46726   0.50000   0.0000000000
H          H       0.45705   0.42555   0.50000   0.0000000000
C          C       0.47526   0.95629   0.50000   0.0000000000
C          C       0.51862   0.97553   0.50000   0.0000000000
H          H       0.39287   0.89746   0.50000   0.0000000000
H          H       0.53274   0.95815   0.50000   0.0000000000
C          C       0.01874   0.47556   0.50000   0.0000000000
H          H       0.03151   0.45705   0.50000   0.0000000000
C          C       0.45683   0.98126   0.50000   0.0000000000
H          H       0.42555   0.96849   0.50000   0.0000000000
C          C       0.98126   0.52444   0.50000   0.0000000000
H          H       0.96849   0.54295   0.50000   0.0000000000
C          C       0.54317   0.01874   0.50000   0.0000000000
H          H       0.57445   0.03151   0.50000   0.0000000000
C          C       0.17241   0.59722   0.50000   0.0000000000
C          C       0.21530   0.62416   0.50000   0.0000000000
C          C       0.40278   0.57520   0.50000   0.0000000000
C          C       0.37584   0.59114   0.50000   0.0000000000
C          C       0.42480   0.82759   0.50000   0.0000000000
C          C       0.40886   0.78470   0.50000   0.0000000000
C          C       0.82759   0.40278   0.50000   0.0000000000
C          C       0.78470   0.37584   0.50000   0.0000000000
C          C       0.59722   0.42480   0.50000   0.0000000000
C          C       0.62416   0.40886   0.50000   0.0000000000
C          C       0.57520   0.17241   0.50000   0.0000000000
C          C       0.59114   0.21530   0.50000   0.0000000000
H          H       0.15350   0.60958   0.50000   0.0000000000
H          H       0.22385   0.65445   0.50000   0.0000000000
H          H       0.39042   0.54392   0.50000   0.0000000000
H          H       0.34555   0.56940   0.50000   0.0000000000
H          H       0.45608   0.84650   0.50000   0.0000000000
H          H       0.43060   0.77615   0.50000   0.0000000000
H          H       0.84650   0.39042   0.50000   0.0000000000
H          H       0.77615   0.34555   0.50000   0.0000000000
H          H       0.60958   0.45608   0.50000   0.0000000000
H          H       0.65445   0.43060   0.50000   0.0000000000
H          H       0.54392   0.15350   0.50000   0.0000000000
H          H       0.56940   0.22385   0.50000   0.0000000000
C          C       0.35572   0.81639   0.50000   0.0000000000
C          C       0.34017   0.77354   0.50000   0.0000000000
C          C       0.18361   0.53933   0.50000   0.0000000000
C          C       0.22646   0.56663   0.50000   0.0000000000
C          C       0.46067   0.64428   0.50000   0.0000000000
C          C       0.43337   0.65983   0.50000   0.0000000000
C          C       0.64428   0.18361   0.50000   0.0000000000
C          C       0.65983   0.22646   0.50000   0.0000000000
C          C       0.81639   0.46067   0.50000   0.0000000000
C          C       0.77354   0.43337   0.50000   0.0000000000
C          C       0.53933   0.35572   0.50000   0.0000000000
C          C       0.56663   0.34017   0.50000   0.0000000000
H          H       0.33537   0.82706   0.50000   0.0000000000
H          H       0.30900   0.75636   0.50000   0.0000000000
H          H       0.17294   0.50831   0.50000   0.0000000000
H          H       0.24364   0.55264   0.50000   0.0000000000
H          H       0.49169   0.66463   0.50000   0.0000000000
H          H       0.44736   0.69100   0.50000   0.0000000000
H          H       0.66463   0.17294   0.50000   0.0000000000
H          H       0.69100   0.24364   0.50000   0.0000000000
H          H       0.82706   0.49169   0.50000   0.0000000000
H          H       0.75636   0.44736   0.50000   0.0000000000
H          H       0.50831   0.33537   0.50000   0.0000000000
H          H       0.55264   0.30900   0.50000   0.0000000000
C          C       0.34965   0.71121   0.50000   0.0000000000
C          C       0.39844   0.84430   0.50000   0.0000000000
C          C       0.36578   0.75532   0.50000   0.0000000000
C          C       0.37521   0.69321   0.50000   0.0000000000
C          C       0.28879   0.63843   0.50000   0.0000000000
C          C       0.15570   0.55415   0.50000   0.0000000000
C          C       0.24468   0.61046   0.50000   0.0000000000
C          C       0.30679   0.68201   0.50000   0.0000000000
C          C       0.36157   0.65035   0.50000   0.0000000000
C          C       0.44585   0.60156   0.50000   0.0000000000
C          C       0.38954   0.63422   0.50000   0.0000000000
C          C       0.31799   0.62479   0.50000   0.0000000000
C          C       0.65035   0.28879   0.50000   0.0000000000
C          C       0.60156   0.15570   0.50000   0.0000000000
C          C       0.63422   0.24468   0.50000   0.0000000000
C          C       0.62479   0.30679   0.50000   0.0000000000
C          C       0.71121   0.36157   0.50000   0.0000000000
C          C       0.84430   0.44585   0.50000   0.0000000000
C          C       0.75532   0.38954   0.50000   0.0000000000
C          C       0.69321   0.31799   0.50000   0.0000000000
C          C       0.63843   0.34965   0.50000   0.0000000000
C          C       0.55415   0.39844   0.50000   0.0000000000
C          C       0.61046   0.36578   0.50000   0.0000000000
C          C       0.68201   0.37521   0.50000   0.0000000000
H          H       0.28754   0.69317   0.50000   0.0000000000
H          H       0.30683   0.59437   0.50000   0.0000000000
H          H       0.40563   0.71246   0.50000   0.0000000000
H          H       0.71246   0.30683   0.50000   0.0000000000
H          H       0.69317   0.40563   0.50000   0.0000000000
H          H       0.59437   0.28754   0.50000   0.0000000000
