data_crystal
 
_cell_length_a    37.56460
_cell_length_b    37.56460
_cell_length_c    3.61630
_cell_angle_alpha 90.00000
_cell_angle_beta  90.00000
_cell_angle_gamma 120.00000
 
_symmetry_space_group_name_Hall 'P 1'
_symmetry_space_group_name_H-M  'P 1'
 
loop_
_symmetry_equiv_pos_as_xyz
 'x,y,z' 
 
loop_
_atom_site_label
_atom_site_type_symbol
_atom_site_fract_x
_atom_site_fract_y
_atom_site_fract_z
_atom_site_charge
C          C       0.88691   0.47586   0.50001   0.0000000000
C          C       0.52414   0.41105   0.50001   0.0000000000
C          C       0.58896   0.11309   0.50001   0.0000000000
C          C       0.11309   0.52414   0.50001   0.0000000000
C          C       0.47586   0.58896   0.50001   0.0000000000
C          C       0.41105   0.88691   0.50001   0.0000000000
N          N       0.91442   0.46233   0.50001   0.0000000000
H          H       0.90227   0.43277   0.50001   0.0000000000
N          N       0.53767   0.45209   0.50001   0.0000000000
H          H       0.56723   0.46950   0.50001   0.0000000000
N          N       0.54791   0.08558   0.50001   0.0000000000
H          H       0.53051   0.09774   0.50001   0.0000000000
N          N       0.08558   0.53767   0.50001   0.0000000000
H          H       0.09774   0.56723   0.50001   0.0000000000
N          N       0.46233   0.54791   0.50001   0.0000000000
H          H       0.43277   0.53051   0.50001   0.0000000000
N          N       0.45209   0.91442   0.50001   0.0000000000
H          H       0.46950   0.90227   0.50001   0.0000000000
C          C       0.95625   0.48270   0.50001   0.0000000000
C          C       0.51730   0.47355   0.50001   0.0000000000
C          C       0.52645   0.04375   0.50001   0.0000000000
C          C       0.04375   0.51730   0.50001   0.0000000000
C          C       0.48270   0.52645   0.50001   0.0000000000
C          C       0.47355   0.95625   0.50001   0.0000000000
C          C       0.97413   0.45740   0.50001   0.0000000000
C          C       0.54261   0.51674   0.50001   0.0000000000
C          C       0.48326   0.02587   0.50001   0.0000000000
C          C       0.02587   0.54261   0.50001   0.0000000000
C          C       0.45740   0.48326   0.50001   0.0000000000
C          C       0.51674   0.97413   0.50001   0.0000000000
C          C       0.01702   0.47422   0.50001   0.0000000000
C          C       0.52578   0.54281   0.50001   0.0000000000
C          C       0.45719   0.98298   0.50001   0.0000000000
C          C       0.98298   0.52578   0.50001   0.0000000000
C          C       0.47422   0.45719   0.50001   0.0000000000
C          C       0.54281   0.01702   0.50001   0.0000000000
O          O       0.89917   0.51363   0.50001   0.0000000000
O          O       0.48637   0.38555   0.50001   0.0000000000
O          O       0.61445   0.10083   0.50001   0.0000000000
O          O       0.10083   0.48637   0.50001   0.0000000000
O          O       0.51363   0.61445   0.50001   0.0000000000
O          O       0.38555   0.89917   0.50001   0.0000000000
H          H       0.95588   0.42605   0.50001   0.0000000000
H          H       0.57395   0.52984   0.50001   0.0000000000
H          H       0.47016   0.04412   0.50001   0.0000000000
H          H       0.04412   0.57395   0.50001   0.0000000000
H          H       0.42605   0.47016   0.50001   0.0000000000
H          H       0.52984   0.95588   0.50001   0.0000000000
H          H       0.02788   0.45425   0.50001   0.0000000000
H          H       0.54576   0.57364   0.50001   0.0000000000
H          H       0.42636   0.97212   0.50001   0.0000000000
H          H       0.97212   0.54576   0.50001   0.0000000000
H          H       0.45425   0.42636   0.50001   0.0000000000
H          H       0.57364   0.02788   0.50001   0.0000000000
C          C       0.17266   0.59528   0.50001   0.0000000000
C          C       0.21535   0.62265   0.50001   0.0000000000
C          C       0.40472   0.57738   0.50001   0.0000000000
C          C       0.37735   0.59270   0.50001   0.0000000000
C          C       0.42262   0.82734   0.50001   0.0000000000
C          C       0.40730   0.78466   0.50001   0.0000000000
C          C       0.82734   0.40472   0.50001   0.0000000000
C          C       0.78466   0.37735   0.50001   0.0000000000
C          C       0.59528   0.42262   0.50001   0.0000000000
C          C       0.62265   0.40730   0.50001   0.0000000000
C          C       0.57738   0.17266   0.50001   0.0000000000
C          C       0.59270   0.21535   0.50001   0.0000000000
H          H       0.15398   0.60774   0.50001   0.0000000000
H          H       0.22347   0.65275   0.50001   0.0000000000
H          H       0.39226   0.54624   0.50001   0.0000000000
H          H       0.34725   0.57072   0.50001   0.0000000000
H          H       0.45376   0.84603   0.50001   0.0000000000
H          H       0.42928   0.77653   0.50001   0.0000000000
H          H       0.84603   0.39226   0.50001   0.0000000000
H          H       0.77653   0.34725   0.50001   0.0000000000
H          H       0.60774   0.45376   0.50001   0.0000000000
H          H       0.65275   0.42928   0.50001   0.0000000000
H          H       0.54624   0.15398   0.50001   0.0000000000
H          H       0.57072   0.22347   0.50001   0.0000000000
C          C       0.35358   0.81519   0.50001   0.0000000000
C          C       0.33857   0.77253   0.50001   0.0000000000
C          C       0.18482   0.53840   0.50001   0.0000000000
C          C       0.22747   0.56604   0.50001   0.0000000000
C          C       0.46160   0.64642   0.50001   0.0000000000
C          C       0.43396   0.66143   0.50001   0.0000000000
C          C       0.64642   0.18482   0.50001   0.0000000000
C          C       0.66143   0.22747   0.50001   0.0000000000
C          C       0.81519   0.46160   0.50001   0.0000000000
C          C       0.77253   0.43396   0.50001   0.0000000000
C          C       0.53840   0.35358   0.50001   0.0000000000
C          C       0.56604   0.33857   0.50001   0.0000000000
H          H       0.33264   0.82498   0.50001   0.0000000000
H          H       0.30750   0.75504   0.50001   0.0000000000
H          H       0.17502   0.50765   0.50001   0.0000000000
H          H       0.24496   0.55246   0.50001   0.0000000000
H          H       0.49235   0.66737   0.50001   0.0000000000
H          H       0.44754   0.69250   0.50001   0.0000000000
H          H       0.66737   0.17502   0.50001   0.0000000000
H          H       0.69250   0.24496   0.50001   0.0000000000
H          H       0.82498   0.49235   0.50001   0.0000000000
H          H       0.75504   0.44754   0.50001   0.0000000000
H          H       0.50765   0.33264   0.50001   0.0000000000
H          H       0.55246   0.30750   0.50001   0.0000000000
C          C       0.34902   0.71099   0.50001   0.0000000000
C          C       0.28901   0.63802   0.50001   0.0000000000
C          C       0.36198   0.65098   0.50001   0.0000000000
C          C       0.39616   0.84394   0.50001   0.0000000000
C          C       0.15606   0.55222   0.50001   0.0000000000
C          C       0.44778   0.60384   0.50001   0.0000000000
C          C       0.36453   0.75488   0.50001   0.0000000000
C          C       0.24512   0.60965   0.50001   0.0000000000
C          C       0.39035   0.63547   0.50001   0.0000000000
C          C       0.37501   0.69360   0.50001   0.0000000000
C          C       0.30641   0.68142   0.50001   0.0000000000
C          C       0.31858   0.62499   0.50001   0.0000000000
C          C       0.65098   0.28901   0.50001   0.0000000000
C          C       0.71099   0.36198   0.50001   0.0000000000
C          C       0.63802   0.34902   0.50001   0.0000000000
C          C       0.60384   0.15606   0.50001   0.0000000000
C          C       0.84394   0.44778   0.50001   0.0000000000
C          C       0.55222   0.39616   0.50001   0.0000000000
C          C       0.63547   0.24512   0.50001   0.0000000000
C          C       0.75488   0.39035   0.50001   0.0000000000
C          C       0.60965   0.36453   0.50001   0.0000000000
C          C       0.62499   0.30641   0.50001   0.0000000000
C          C       0.69360   0.31858   0.50001   0.0000000000
C          C       0.68142   0.37501   0.50001   0.0000000000
H          H       0.28687   0.69216   0.50001   0.0000000000
H          H       0.30784   0.59471   0.50001   0.0000000000
H          H       0.40529   0.71313   0.50001   0.0000000000
H          H       0.71313   0.30784   0.50001   0.0000000000
H          H       0.69216   0.40529   0.50001   0.0000000000
H          H       0.59471   0.28687   0.50001   0.0000000000
