data_crystal

_cell_length_a    37.46650
_cell_length_b    37.46650
_cell_length_c    7.26660
_cell_angle_alpha 90.00000
_cell_angle_beta  90.00000
_cell_angle_gamma 120.00000

_space_group_name_Hall 'P 1'
_space_group_name_H-M_alt  'P 1'

loop_
_symmetry_equiv_pos_as_xyz
'x,y,z' 

loop_
_atom_site_label
_atom_site_type_symbol
_atom_site_fract_x
_atom_site_fract_y
_atom_site_fract_z
C          C       0.88708   0.47364   0.25000 
C          C       0.52636   0.41344   0.25000 
C          C       0.58656   0.11292   0.25000 
C          C       0.11292   0.52636   0.25000 
C          C       0.47364   0.58656   0.25000 
C          C       0.41344   0.88708   0.25000 
N          N       0.91457   0.46027   0.25000 
N          N       0.53973   0.45430   0.25000 
N          N       0.54570   0.08543   0.25000 
N          N       0.08543   0.53973   0.25000 
N          N       0.46027   0.54570   0.25000 
N          N       0.45430   0.91457   0.25000 
C          C       0.95629   0.48103   0.25000 
C          C       0.97553   0.45691   0.25000 
H          H       0.89746   0.50459   0.25000 
H          H       0.95815   0.42541   0.25000 
C          C       0.51897   0.47526   0.25000 
C          C       0.54309   0.51862   0.25000 
C          C       0.52444   0.54317   0.25000 
H          H       0.49541   0.39287   0.25000 
H          H       0.57459   0.53274   0.25000 
H          H       0.54295   0.57445   0.25000 
C          C       0.52474   0.04371   0.25000 
C          C       0.48138   0.02447   0.25000 
H          H       0.60713   0.10254   0.25000 
H          H       0.46726   0.04185   0.25000 
C          C       0.04371   0.51897   0.25000 
C          C       0.02447   0.54309   0.25000 
H          H       0.10254   0.49541   0.25000 
H          H       0.04185   0.57459   0.25000 
C          C       0.48103   0.52474   0.25000 
C          C       0.45691   0.48138   0.25000 
C          C       0.47556   0.45683   0.25000 
H          H       0.50459   0.60713   0.25000 
H          H       0.42541   0.46726   0.25000 
H          H       0.45705   0.42555   0.25000 
C          C       0.47526   0.95629   0.25000 
C          C       0.51862   0.97553   0.25000 
H          H       0.39287   0.89746   0.25000 
H          H       0.53274   0.95815   0.25000 
C          C       0.01874   0.47556   0.25000 
H          H       0.03151   0.45705   0.25000 
C          C       0.45683   0.98126   0.25000 
H          H       0.42555   0.96849   0.25000 
C          C       0.98126   0.52444   0.25000 
H          H       0.96849   0.54295   0.25000 
C          C       0.54317   0.01874   0.25000 
H          H       0.57445   0.03151   0.25000 
C          C       0.17241   0.59722   0.25000 
C          C       0.21530   0.62416   0.25000 
C          C       0.40278   0.57520   0.25000 
C          C       0.37584   0.59114   0.25000 
C          C       0.42480   0.82759   0.25000 
C          C       0.40886   0.78470   0.25000 
C          C       0.82759   0.40278   0.25000 
C          C       0.78470   0.37584   0.25000 
C          C       0.59722   0.42480   0.25000 
C          C       0.62416   0.40886   0.25000 
C          C       0.57520   0.17241   0.25000 
C          C       0.59114   0.21530   0.25000 
H          H       0.15350   0.60958   0.25000 
H          H       0.22385   0.65445   0.25000 
H          H       0.39042   0.54392   0.25000 
H          H       0.34555   0.56940   0.25000 
H          H       0.45608   0.84650   0.25000 
H          H       0.43060   0.77615   0.25000 
H          H       0.84650   0.39042   0.25000 
H          H       0.77615   0.34555   0.25000 
H          H       0.60958   0.45608   0.25000 
H          H       0.65445   0.43060   0.25000 
H          H       0.54392   0.15350   0.25000 
H          H       0.56940   0.22385   0.25000 
C          C       0.35572   0.81639   0.25000 
C          C       0.34017   0.77354   0.25000 
C          C       0.18361   0.53933   0.25000 
C          C       0.22646   0.56663   0.25000 
C          C       0.46067   0.64428   0.25000 
C          C       0.43337   0.65983   0.25000 
C          C       0.64428   0.18361   0.25000 
C          C       0.65983   0.22646   0.25000 
C          C       0.81639   0.46067   0.25000 
C          C       0.77354   0.43337   0.25000 
C          C       0.53933   0.35572   0.25000 
C          C       0.56663   0.34017   0.25000 
H          H       0.33537   0.82706   0.25000 
H          H       0.30900   0.75636   0.25000 
H          H       0.17294   0.50831   0.25000 
H          H       0.24364   0.55264   0.25000 
H          H       0.49169   0.66463   0.25000 
H          H       0.44736   0.69100   0.25000 
H          H       0.66463   0.17294   0.25000 
H          H       0.69100   0.24364   0.25000 
H          H       0.82706   0.49169   0.25000 
H          H       0.75636   0.44736   0.25000 
H          H       0.50831   0.33537   0.25000 
H          H       0.55264   0.30900   0.25000 
C          C       0.34965   0.71121   0.25000 
C          C       0.39844   0.84430   0.25000 
C          C       0.36578   0.75532   0.25000 
C          C       0.37521   0.69321   0.25000 
C          C       0.28879   0.63843   0.25000 
C          C       0.15570   0.55415   0.25000 
C          C       0.24468   0.61046   0.25000 
C          C       0.30679   0.68201   0.25000 
C          C       0.36157   0.65035   0.25000 
C          C       0.44585   0.60156   0.25000 
C          C       0.38954   0.63422   0.25000 
C          C       0.31799   0.62479   0.25000 
C          C       0.65035   0.28879   0.25000 
C          C       0.60156   0.15570   0.25000 
C          C       0.63422   0.24468   0.25000 
C          C       0.62479   0.30679   0.25000 
C          C       0.71121   0.36157   0.25000 
C          C       0.84430   0.44585   0.25000 
C          C       0.75532   0.38954   0.25000 
C          C       0.69321   0.31799   0.25000 
C          C       0.63843   0.34965   0.25000 
C          C       0.55415   0.39844   0.25000 
C          C       0.61046   0.36578   0.25000 
C          C       0.68201   0.37521   0.25000 
H          H       0.28754   0.69317   0.25000 
H          H       0.30683   0.59437   0.25000 
H          H       0.40563   0.71246   0.25000 
H          H       0.71246   0.30683   0.25000 
H          H       0.69317   0.40563   0.25000 
H          H       0.59437   0.28754   0.25000 
C          C       0.88708   0.47364   0.75000 
C          C       0.52636   0.41344   0.75000 
C          C       0.58656   0.11292   0.75000 
C          C       0.11292   0.52636   0.75000 
C          C       0.47364   0.58656   0.75000 
C          C       0.41344   0.88708   0.75000 
N          N       0.91457   0.46027   0.75000 
N          N       0.53973   0.45430   0.75000 
N          N       0.54570   0.08543   0.75000 
N          N       0.08543   0.53973   0.75000 
N          N       0.46027   0.54570   0.75000 
N          N       0.45430   0.91457   0.75000 
C          C       0.95629   0.48103   0.75000 
C          C       0.97553   0.45691   0.75000 
H          H       0.89746   0.50459   0.75000 
H          H       0.95815   0.42541   0.75000 
C          C       0.51897   0.47526   0.75000 
C          C       0.54309   0.51862   0.75000 
C          C       0.52444   0.54317   0.75000 
H          H       0.49541   0.39287   0.75000 
H          H       0.57459   0.53274   0.75000 
H          H       0.54295   0.57445   0.75000 
C          C       0.52474   0.04371   0.75000 
C          C       0.48138   0.02447   0.75000 
H          H       0.60713   0.10254   0.75000 
H          H       0.46726   0.04185   0.75000 
C          C       0.04371   0.51897   0.75000 
C          C       0.02447   0.54309   0.75000 
H          H       0.10254   0.49541   0.75000 
H          H       0.04185   0.57459   0.75000 
C          C       0.48103   0.52474   0.75000 
C          C       0.45691   0.48138   0.75000 
C          C       0.47556   0.45683   0.75000 
H          H       0.50459   0.60713   0.75000 
H          H       0.42541   0.46726   0.75000 
H          H       0.45705   0.42555   0.75000 
C          C       0.47526   0.95629   0.75000 
C          C       0.51862   0.97553   0.75000 
H          H       0.39287   0.89746   0.75000 
H          H       0.53274   0.95815   0.75000 
C          C       0.01874   0.47556   0.75000 
H          H       0.03151   0.45705   0.75000 
C          C       0.45683   0.98126   0.75000 
H          H       0.42555   0.96849   0.75000 
C          C       0.98126   0.52444   0.75000 
H          H       0.96849   0.54295   0.75000 
C          C       0.54317   0.01874   0.75000 
H          H       0.57445   0.03151   0.75000 
C          C       0.17241   0.59722   0.75000 
C          C       0.21530   0.62416   0.75000 
C          C       0.40278   0.57520   0.75000 
C          C       0.37584   0.59114   0.75000 
C          C       0.42480   0.82759   0.75000 
C          C       0.40886   0.78470   0.75000 
C          C       0.82759   0.40278   0.75000 
C          C       0.78470   0.37584   0.75000 
C          C       0.59722   0.42480   0.75000 
C          C       0.62416   0.40886   0.75000 
C          C       0.57520   0.17241   0.75000 
C          C       0.59114   0.21530   0.75000 
H          H       0.15350   0.60958   0.75000 
H          H       0.22385   0.65445   0.75000 
H          H       0.39042   0.54392   0.75000 
H          H       0.34555   0.56940   0.75000 
H          H       0.45608   0.84650   0.75000 
H          H       0.43060   0.77615   0.75000 
H          H       0.84650   0.39042   0.75000 
H          H       0.77615   0.34555   0.75000 
H          H       0.60958   0.45608   0.75000 
H          H       0.65445   0.43060   0.75000 
H          H       0.54392   0.15350   0.75000 
H          H       0.56940   0.22385   0.75000 
C          C       0.35572   0.81639   0.75000 
C          C       0.34017   0.77354   0.75000 
C          C       0.18361   0.53933   0.75000 
C          C       0.22646   0.56663   0.75000 
C          C       0.46067   0.64428   0.75000 
C          C       0.43337   0.65983   0.75000 
C          C       0.64428   0.18361   0.75000 
C          C       0.65983   0.22646   0.75000 
C          C       0.81639   0.46067   0.75000 
C          C       0.77354   0.43337   0.75000 
C          C       0.53933   0.35572   0.75000 
C          C       0.56663   0.34017   0.75000 
H          H       0.33537   0.82706   0.75000 
H          H       0.30900   0.75636   0.75000 
H          H       0.17294   0.50831   0.75000 
H          H       0.24364   0.55264   0.75000 
H          H       0.49169   0.66463   0.75000 
H          H       0.44736   0.69100   0.75000 
H          H       0.66463   0.17294   0.75000 
H          H       0.69100   0.24364   0.75000 
H          H       0.82706   0.49169   0.75000 
H          H       0.75636   0.44736   0.75000 
H          H       0.50831   0.33537   0.75000 
H          H       0.55264   0.30900   0.75000 
C          C       0.34965   0.71121   0.75000 
C          C       0.39844   0.84430   0.75000 
C          C       0.36578   0.75532   0.75000 
C          C       0.37521   0.69321   0.75000 
C          C       0.28879   0.63843   0.75000 
C          C       0.15570   0.55415   0.75000 
C          C       0.24468   0.61046   0.75000 
C          C       0.30679   0.68201   0.75000 
C          C       0.36157   0.65035   0.75000 
C          C       0.44585   0.60156   0.75000 
C          C       0.38954   0.63422   0.75000 
C          C       0.31799   0.62479   0.75000 
C          C       0.65035   0.28879   0.75000 
C          C       0.60156   0.15570   0.75000 
C          C       0.63422   0.24468   0.75000 
C          C       0.62479   0.30679   0.75000 
C          C       0.71121   0.36157   0.75000 
C          C       0.84430   0.44585   0.75000 
C          C       0.75532   0.38954   0.75000 
C          C       0.69321   0.31799   0.75000 
C          C       0.63843   0.34965   0.75000 
C          C       0.55415   0.39844   0.75000 
C          C       0.61046   0.36578   0.75000 
C          C       0.68201   0.37521   0.75000 
H          H       0.28754   0.69317   0.75000 
H          H       0.30683   0.59437   0.75000 
H          H       0.40563   0.71246   0.75000 
H          H       0.71246   0.30683   0.75000 
H          H       0.69317   0.40563   0.75000 
H          H       0.59437   0.28754   0.75000 
