data_crystal

_cell_length_a    38.76900
_cell_length_b    38.76900
_cell_length_c    10.69800
_cell_angle_alpha 90.00000
_cell_angle_beta  90.00000
_cell_angle_gamma 120.00000

_space_group_name_Hall 'P 1'
_space_group_name_H-M_alt  'P 1'

loop_
_symmetry_equiv_pos_as_xyz
'x,y,z' 

loop_
_atom_site_label
_atom_site_type_symbol
_atom_site_fract_x
_atom_site_fract_y
_atom_site_fract_z
C          C       0.48147   0.48143   0.26615 
C          C       0.51857   0.00004   0.26615 
C          C       0.99996   0.51853   0.26615 
C          C       0.51853   0.51857   0.26615 
C          C       0.48143   0.99996   0.26615 
C          C       0.00004   0.48147   0.26615 
C          C       0.44389   0.47955   0.26550 
C          C       0.52045   0.96434   0.26550 
C          C       0.03566   0.55611   0.26550 
C          C       0.55611   0.52045   0.26550 
C          C       0.47955   0.03566   0.26550 
C          C       0.96434   0.44389   0.26550 
C          C       0.41530   0.45781   0.17193 
C          C       0.54219   0.95749   0.17193 
C          C       0.04251   0.58470   0.17193 
C          C       0.58470   0.54219   0.17193 
C          C       0.45781   0.04251   0.17193 
C          C       0.95749   0.41530   0.17193 
C          C       0.37840   0.45651   0.16856 
C          C       0.54350   0.92189   0.16856 
C          C       0.07811   0.62160   0.16856 
C          C       0.62160   0.54350   0.16856 
C          C       0.45651   0.07811   0.16856 
C          C       0.92189   0.37840   0.16856 
C          C       0.36892   0.47700   0.25913 
C          C       0.52300   0.89192   0.25913 
C          C       0.10808   0.63108   0.25913 
C          C       0.63108   0.52300   0.25913 
C          C       0.47700   0.10808   0.25913 
C          C       0.89192   0.36892   0.25913 
C          C       0.39710   0.49853   0.35292 
C          C       0.50147   0.89857   0.35292 
C          C       0.10143   0.60290   0.35292 
C          C       0.60290   0.50147   0.35292 
C          C       0.49853   0.10143   0.35292 
C          C       0.89857   0.39710   0.35292 
C          C       0.43374   0.49932   0.35669 
C          C       0.50068   0.93441   0.35669 
C          C       0.06559   0.56626   0.35669 
C          C       0.56626   0.50068   0.35669 
C          C       0.49932   0.06559   0.35669 
C          C       0.93441   0.43374   0.35669 
H          H       0.45317   0.51471   0.42649 
H          H       0.48530   0.93846   0.42649 
H          H       0.06154   0.54683   0.42649 
H          H       0.54683   0.48530   0.42649 
H          H       0.51471   0.06154   0.42649 
H          H       0.93846   0.45317   0.42649 
C          C       0.47975   0.44395   0.26367 
C          C       0.55605   0.03580   0.26367 
C          C       0.96420   0.52025   0.26367 
C          C       0.52025   0.55605   0.26367 
C          C       0.44395   0.96420   0.26367 
C          C       0.03580   0.47975   0.26367 
C          C       0.45787   0.41436   0.35447 
C          C       0.58564   0.04350   0.35447 
C          C       0.95650   0.54213   0.35447 
C          C       0.54213   0.58564   0.35447 
C          C       0.41436   0.95650   0.35447 
C          C       0.04350   0.45787   0.35447 
C          C       0.45614   0.37723   0.35159 
C          C       0.62277   0.07891   0.35159 
C          C       0.92109   0.54386   0.35159 
C          C       0.54386   0.62277   0.35159 
C          C       0.37723   0.92109   0.35159 
C          C       0.07891   0.45614   0.35159 
C          C       0.47670   0.36878   0.25890 
C          C       0.63122   0.10792   0.25890 
C          C       0.89208   0.52330   0.25890 
C          C       0.52330   0.63122   0.25890 
C          C       0.36878   0.89208   0.25890 
C          C       0.10792   0.47670   0.25890 
C          C       0.49802   0.39785   0.16667 
C          C       0.60215   0.10017   0.16667 
C          C       0.89983   0.50198   0.16667 
C          C       0.50198   0.60215   0.16667 
C          C       0.39785   0.89983   0.16667 
C          C       0.10017   0.49802   0.16667 
C          C       0.49919   0.43465   0.16902 
C          C       0.56535   0.06454   0.16902 
C          C       0.93546   0.50081   0.16902 
C          C       0.50081   0.56535   0.16902 
C          C       0.43465   0.93546   0.16902 
C          C       0.06454   0.49919   0.16902 
N          N       0.33473   0.47849   0.26050 
N          N       0.52151   0.85624   0.26050 
N          N       0.14376   0.66527   0.26050 
N          N       0.66527   0.52151   0.26050 
N          N       0.47849   0.14376   0.26050 
N          N       0.85624   0.33473   0.26050 
C          C       0.29784   0.45397   0.21396 
C          C       0.54603   0.84387   0.21396 
C          C       0.15613   0.70216   0.21396 
C          C       0.70216   0.54603   0.21396 
C          C       0.45397   0.15613   0.21396 
C          C       0.84387   0.29784   0.21396 
C          C       0.26835   0.46519   0.21946 
C          C       0.53481   0.80316   0.21946 
C          C       0.19684   0.73165   0.21946 
C          C       0.73165   0.53481   0.21946 
C          C       0.46519   0.19684   0.21946 
C          C       0.80316   0.26835   0.21946 
C          C       0.22731   0.43635   0.21479 
C          C       0.56365   0.79096   0.21479 
C          C       0.20904   0.77269   0.21479 
C          C       0.77269   0.56365   0.21479 
C          C       0.43635   0.20904   0.21479 
C          C       0.79096   0.22731   0.21479 
C          C       0.27878   0.50572   0.22820 
C          C       0.49429   0.77306   0.22820 
C          C       0.22694   0.72123   0.22820 
C          C       0.72123   0.49429   0.22820 
C          C       0.50572   0.22694   0.22820 
C          C       0.77306   0.27877   0.22820 
N          N       0.47393   0.33252   0.26151 
N          N       0.66748   0.14141   0.26151 
N          N       0.85859   0.52607   0.26151 
N          N       0.52607   0.66748   0.26151 
N          N       0.33252   0.85859   0.26151 
N          N       0.14141   0.47393   0.26151 
C          C       0.49958   0.32049   0.22298 
C          C       0.67951   0.17908   0.22298 
C          C       0.82092   0.50042   0.22298 
C          C       0.50042   0.67951   0.22298 
C          C       0.32049   0.82092   0.22298 
C          C       0.17908   0.49958   0.22298 
C          C       0.48814   0.27971   0.22420 
C          C       0.72029   0.20843   0.22420 
C          C       0.79157   0.51187   0.22420 
C          C       0.51187   0.72029   0.22420 
C          C       0.27971   0.79157   0.22420 
C          C       0.20843   0.48814   0.22420 
C          C       0.51695   0.26750   0.23006 
C          C       0.73250   0.24945   0.23006 
C          C       0.75055   0.48305   0.23006 
C          C       0.48305   0.73250   0.23006 
C          C       0.26750   0.75055   0.23006 
C          C       0.24945   0.51695   0.23006 
C          C       0.44757   0.24961   0.21764 
C          C       0.75039   0.19796   0.21764 
C          C       0.80204   0.55243   0.21764 
C          C       0.55243   0.75039   0.21764 
C          C       0.24961   0.80204   0.21764 
C          C       0.19796   0.44757   0.21764 
H          H       0.42128   0.44296   0.10415 
H          H       0.55704   0.97832   0.10415 
H          H       0.02168   0.57872   0.10415 
H          H       0.57872   0.55704   0.10415 
H          H       0.44296   0.02168   0.10415 
H          H       0.97832   0.42128   0.10415 
H          H       0.35900   0.44104   0.09811 
H          H       0.55896   0.91796   0.09811 
H          H       0.08204   0.64100   0.09811 
H          H       0.64100   0.55896   0.09811 
H          H       0.44104   0.08204   0.09811 
H          H       0.91796   0.35900   0.09811 
H          H       0.39111   0.51374   0.41966 
H          H       0.48626   0.87736   0.41966 
H          H       0.12264   0.60889   0.41966 
H          H       0.60889   0.48626   0.41966 
H          H       0.51374   0.12264   0.41966 
H          H       0.87736   0.39111   0.41966 
H          H       0.44300   0.41964   0.42390 
H          H       0.58036   0.02336   0.42390 
H          H       0.97665   0.55700   0.42390 
H          H       0.55700   0.58036   0.42390 
H          H       0.41964   0.97665   0.42390 
H          H       0.02335   0.44300   0.42390 
H          H       0.43996   0.35646   0.41842 
H          H       0.64354   0.08350   0.41842 
H          H       0.91650   0.56004   0.41842 
H          H       0.56004   0.64354   0.41842 
H          H       0.35646   0.91650   0.41842 
H          H       0.08350   0.43996   0.41842 
H          H       0.51236   0.39239   0.09598 
H          H       0.60761   0.11997   0.09598 
H          H       0.88003   0.48764   0.09598 
H          H       0.48764   0.60761   0.09598 
H          H       0.39239   0.88003   0.09598 
H          H       0.11997   0.51236   0.09598 
H          H       0.51431   0.45473   0.10043 
H          H       0.54527   0.05958   0.10043 
H          H       0.94042   0.48569   0.10043 
H          H       0.48569   0.54527   0.10043 
H          H       0.45473   0.94042   0.10043 
H          H       0.05958   0.51431   0.10043 
O          O       0.28955   0.42095   0.16787 
O          O       0.57905   0.86860   0.16787 
O          O       0.13140   0.71045   0.16787 
O          O       0.71045   0.57905   0.16787 
O          O       0.42095   0.13140   0.16787 
O          O       0.86860   0.28955   0.16787 
H          H       0.21822   0.40665   0.20932 
H          H       0.59335   0.81157   0.20932 
H          H       0.18843   0.78178   0.20932 
H          H       0.78178   0.59335   0.20932 
H          H       0.40665   0.18843   0.20932 
H          H       0.81157   0.21822   0.20932 
H          H       0.30800   0.52775   0.23206 
H          H       0.47225   0.78025   0.23206 
H          H       0.21975   0.69200   0.23206 
H          H       0.69200   0.47225   0.23206 
H          H       0.52775   0.21975   0.23206 
H          H       0.78025   0.30800   0.23206 
O          O       0.53403   0.34579   0.18813 
O          O       0.65421   0.18824   0.18813 
O          O       0.81176   0.46597   0.18813 
O          O       0.46597   0.65421   0.18813 
O          O       0.34579   0.81176   0.18813 
O          O       0.18824   0.53403   0.18813 
H          H       0.54665   0.28810   0.23584 
H          H       0.71190   0.25855   0.23584 
H          H       0.74145   0.45335   0.23584 
H          H       0.45335   0.71190   0.23584 
H          H       0.28810   0.74145   0.23584 
H          H       0.25855   0.54665   0.23584 
H          H       0.42557   0.25685   0.21348 
H          H       0.74315   0.16872   0.21348 
H          H       0.83128   0.57443   0.21348 
H          H       0.57443   0.74315   0.21348 
H          H       0.25685   0.83128   0.21348 
H          H       0.16872   0.42557   0.21348 
H          H       0.68879   0.13775   0.29766 
H          H       0.83516   0.33717   0.30382 
H          H       0.86225   0.55104   0.29766 
H          H       0.66283   0.49799   0.30382 
H          H       0.44896   0.31121   0.29766 
H          H       0.33717   0.50201   0.30382 
H          H       0.13775   0.44896   0.29766 
H          H       0.16484   0.66283   0.30382 
H          H       0.31121   0.86225   0.29766 
H          H       0.49799   0.83516   0.30382 
H          H       0.55104   0.68879   0.29766 
H          H       0.50201   0.16484   0.30382 
C          C       0.48147   0.48143   0.76615 
C          C       0.51857   0.00004   0.76615 
C          C       0.99996   0.51853   0.76615 
C          C       0.51853   0.51857   0.76615 
C          C       0.48143   0.99996   0.76615 
C          C       0.00004   0.48147   0.76615 
C          C       0.44389   0.47955   0.76550 
C          C       0.52045   0.96434   0.76550 
C          C       0.03566   0.55611   0.76550 
C          C       0.55611   0.52045   0.76550 
C          C       0.47955   0.03566   0.76550 
C          C       0.96434   0.44389   0.76550 
C          C       0.41530   0.45781   0.67192 
C          C       0.54219   0.95749   0.67192 
C          C       0.04251   0.58470   0.67192 
C          C       0.58470   0.54219   0.67192 
C          C       0.45781   0.04251   0.67192 
C          C       0.95749   0.41530   0.67192 
C          C       0.37840   0.45651   0.66857 
C          C       0.54350   0.92189   0.66857 
C          C       0.07811   0.62160   0.66857 
C          C       0.62160   0.54350   0.66857 
C          C       0.45651   0.07811   0.66857 
C          C       0.92189   0.37840   0.66857 
C          C       0.36892   0.47700   0.75913 
C          C       0.52300   0.89192   0.75913 
C          C       0.10808   0.63108   0.75913 
C          C       0.63108   0.52300   0.75913 
C          C       0.47700   0.10808   0.75913 
C          C       0.89192   0.36892   0.75913 
C          C       0.39710   0.49853   0.85292 
C          C       0.50147   0.89857   0.85292 
C          C       0.10143   0.60290   0.85292 
C          C       0.60290   0.50147   0.85292 
C          C       0.49853   0.10143   0.85292 
C          C       0.89857   0.39710   0.85292 
C          C       0.43374   0.49932   0.85669 
C          C       0.50068   0.93441   0.85669 
C          C       0.06559   0.56626   0.85669 
C          C       0.56626   0.50068   0.85669 
C          C       0.49932   0.06559   0.85669 
C          C       0.93441   0.43374   0.85669 
H          H       0.45317   0.51471   0.92649 
H          H       0.48530   0.93846   0.92649 
H          H       0.06154   0.54683   0.92649 
H          H       0.54683   0.48530   0.92649 
H          H       0.51471   0.06154   0.92649 
H          H       0.93846   0.45317   0.92649 
C          C       0.47975   0.44395   0.76368 
C          C       0.55605   0.03580   0.76368 
C          C       0.96420   0.52025   0.76368 
C          C       0.52025   0.55605   0.76368 
C          C       0.44395   0.96420   0.76368 
C          C       0.03580   0.47975   0.76368 
C          C       0.45787   0.41436   0.85447 
C          C       0.58564   0.04350   0.85447 
C          C       0.95650   0.54213   0.85447 
C          C       0.54213   0.58564   0.85447 
C          C       0.41436   0.95650   0.85447 
C          C       0.04350   0.45787   0.85447 
C          C       0.45614   0.37723   0.85159 
C          C       0.62277   0.07891   0.85159 
C          C       0.92109   0.54386   0.85159 
C          C       0.54386   0.62277   0.85159 
C          C       0.37723   0.92109   0.85159 
C          C       0.07891   0.45614   0.85159 
C          C       0.47670   0.36878   0.75890 
C          C       0.63122   0.10792   0.75890 
C          C       0.89208   0.52330   0.75890 
C          C       0.52330   0.63122   0.75890 
C          C       0.36878   0.89208   0.75890 
C          C       0.10792   0.47670   0.75890 
C          C       0.49802   0.39785   0.66667 
C          C       0.60215   0.10017   0.66667 
C          C       0.89983   0.50198   0.66667 
C          C       0.50198   0.60215   0.66667 
C          C       0.39785   0.89983   0.66667 
C          C       0.10017   0.49802   0.66667 
C          C       0.49919   0.43465   0.66902 
C          C       0.56535   0.06454   0.66902 
C          C       0.93546   0.50081   0.66902 
C          C       0.50081   0.56535   0.66902 
C          C       0.43465   0.93546   0.66902 
C          C       0.06454   0.49919   0.66902 
N          N       0.33473   0.47849   0.76050 
N          N       0.52151   0.85624   0.76050 
N          N       0.14376   0.66527   0.76050 
N          N       0.66527   0.52151   0.76050 
N          N       0.47849   0.14376   0.76050 
N          N       0.85624   0.33473   0.76050 
C          C       0.29784   0.45397   0.71396 
C          C       0.54603   0.84387   0.71396 
C          C       0.15613   0.70216   0.71396 
C          C       0.70216   0.54603   0.71396 
C          C       0.45397   0.15613   0.71396 
C          C       0.84387   0.29784   0.71396 
C          C       0.26835   0.46519   0.71946 
C          C       0.53481   0.80316   0.71946 
C          C       0.19684   0.73165   0.71946 
C          C       0.73165   0.53481   0.71946 
C          C       0.46519   0.19684   0.71946 
C          C       0.80316   0.26835   0.71946 
C          C       0.22731   0.43635   0.71479 
C          C       0.56365   0.79096   0.71479 
C          C       0.20904   0.77269   0.71479 
C          C       0.77269   0.56365   0.71479 
C          C       0.43635   0.20904   0.71479 
C          C       0.79096   0.22731   0.71479 
C          C       0.27878   0.50572   0.72820 
C          C       0.49429   0.77306   0.72820 
C          C       0.22694   0.72123   0.72820 
C          C       0.72123   0.49429   0.72820 
C          C       0.50572   0.22694   0.72820 
C          C       0.77306   0.27877   0.72820 
N          N       0.47393   0.33252   0.76151 
N          N       0.66748   0.14141   0.76151 
N          N       0.85859   0.52607   0.76151 
N          N       0.52607   0.66748   0.76151 
N          N       0.33252   0.85859   0.76151 
N          N       0.14141   0.47393   0.76151 
C          C       0.49958   0.32049   0.72298 
C          C       0.67951   0.17908   0.72298 
C          C       0.82092   0.50042   0.72298 
C          C       0.50042   0.67951   0.72298 
C          C       0.32049   0.82092   0.72298 
C          C       0.17908   0.49958   0.72298 
C          C       0.48814   0.27971   0.72420 
C          C       0.72029   0.20843   0.72420 
C          C       0.79157   0.51187   0.72420 
C          C       0.51187   0.72029   0.72420 
C          C       0.27971   0.79157   0.72420 
C          C       0.20843   0.48814   0.72420 
C          C       0.51695   0.26750   0.73006 
C          C       0.73250   0.24945   0.73006 
C          C       0.75055   0.48305   0.73006 
C          C       0.48305   0.73250   0.73006 
C          C       0.26750   0.75055   0.73006 
C          C       0.24945   0.51695   0.73006 
C          C       0.44757   0.24961   0.71764 
C          C       0.75039   0.19796   0.71764 
C          C       0.80204   0.55243   0.71764 
C          C       0.55243   0.75039   0.71764 
C          C       0.24961   0.80204   0.71764 
C          C       0.19796   0.44757   0.71764 
H          H       0.42128   0.44296   0.60415 
H          H       0.55704   0.97832   0.60415 
H          H       0.02168   0.57872   0.60415 
H          H       0.57872   0.55704   0.60415 
H          H       0.44296   0.02168   0.60415 
H          H       0.97832   0.42128   0.60415 
H          H       0.35900   0.44104   0.59811 
H          H       0.55896   0.91796   0.59811 
H          H       0.08204   0.64100   0.59811 
H          H       0.64100   0.55896   0.59811 
H          H       0.44104   0.08204   0.59811 
H          H       0.91796   0.35900   0.59811 
H          H       0.39111   0.51374   0.91966 
H          H       0.48626   0.87736   0.91966 
H          H       0.12264   0.60889   0.91966 
H          H       0.60889   0.48626   0.91966 
H          H       0.51374   0.12264   0.91966 
H          H       0.87736   0.39111   0.91966 
H          H       0.44300   0.41964   0.92390 
H          H       0.58036   0.02336   0.92390 
H          H       0.97665   0.55700   0.92390 
H          H       0.55700   0.58036   0.92390 
H          H       0.41964   0.97665   0.92390 
H          H       0.02335   0.44300   0.92390 
H          H       0.43996   0.35646   0.91842 
H          H       0.64354   0.08350   0.91842 
H          H       0.91650   0.56004   0.91842 
H          H       0.56004   0.64354   0.91842 
H          H       0.35646   0.91650   0.91842 
H          H       0.08350   0.43996   0.91842 
H          H       0.51236   0.39239   0.59598 
H          H       0.60761   0.11997   0.59598 
H          H       0.88003   0.48764   0.59598 
H          H       0.48764   0.60761   0.59598 
H          H       0.39239   0.88003   0.59598 
H          H       0.11997   0.51236   0.59598 
H          H       0.51431   0.45473   0.60042 
H          H       0.54527   0.05958   0.60042 
H          H       0.94042   0.48569   0.60042 
H          H       0.48569   0.54527   0.60042 
H          H       0.45473   0.94042   0.60042 
H          H       0.05958   0.51431   0.60042 
O          O       0.28955   0.42095   0.66787 
O          O       0.57905   0.86860   0.66787 
O          O       0.13140   0.71045   0.66787 
O          O       0.71045   0.57905   0.66787 
O          O       0.42095   0.13140   0.66787 
O          O       0.86860   0.28955   0.66787 
H          H       0.21822   0.40665   0.70932 
H          H       0.59335   0.81157   0.70932 
H          H       0.18843   0.78178   0.70932 
H          H       0.78178   0.59335   0.70932 
H          H       0.40665   0.18843   0.70932 
H          H       0.81157   0.21822   0.70932 
H          H       0.30800   0.52775   0.73206 
H          H       0.47225   0.78025   0.73206 
H          H       0.21975   0.69200   0.73206 
H          H       0.69200   0.47225   0.73206 
H          H       0.52775   0.21975   0.73206 
H          H       0.78025   0.30800   0.73206 
O          O       0.53403   0.34579   0.68813 
O          O       0.65421   0.18824   0.68813 
O          O       0.81176   0.46597   0.68813 
O          O       0.46597   0.65421   0.68813 
O          O       0.34579   0.81176   0.68813 
O          O       0.18824   0.53403   0.68813 
H          H       0.54665   0.28810   0.73585 
H          H       0.71190   0.25855   0.73585 
H          H       0.74145   0.45335   0.73585 
H          H       0.45335   0.71190   0.73585 
H          H       0.28810   0.74145   0.73585 
H          H       0.25855   0.54665   0.73585 
H          H       0.42557   0.25685   0.71348 
H          H       0.74315   0.16872   0.71348 
H          H       0.83128   0.57443   0.71348 
H          H       0.57443   0.74315   0.71348 
H          H       0.25685   0.83128   0.71348 
H          H       0.16872   0.42557   0.71348 
H          H       0.68879   0.13775   0.79766 
H          H       0.83516   0.33717   0.80382 
H          H       0.86225   0.55104   0.79766 
H          H       0.66283   0.49799   0.80382 
H          H       0.44896   0.31121   0.79766 
H          H       0.33717   0.50201   0.80382 
H          H       0.13775   0.44896   0.79766 
H          H       0.16484   0.66283   0.80382 
H          H       0.31121   0.86225   0.79766 
H          H       0.49799   0.83516   0.80382 
H          H       0.55104   0.68879   0.79766 
H          H       0.50201   0.16484   0.80382 
