data_crystal

_cell_length_a    30.75220
_cell_length_b    30.75220
_cell_length_c    7.26520
_cell_angle_alpha 90.00000
_cell_angle_beta  90.00000
_cell_angle_gamma 120.00000

_space_group_name_Hall 'P 1'
_space_group_name_H-M_alt  'P 1'

loop_
_symmetry_equiv_pos_as_xyz
'x,y,z' 

loop_
_atom_site_label
_atom_site_type_symbol
_atom_site_fract_x
_atom_site_fract_y
_atom_site_fract_z
C          C       0.89563   0.43017   0.25000 
C          C       0.39600   0.92984   0.25000 
C          C       0.56983   0.46546   0.25000 
C          C       0.07016   0.46616   0.25000 
C          C       0.53455   0.10438   0.25000 
C          C       0.53384   0.60400   0.25000 
C          C       0.10438   0.56983   0.25000 
C          C       0.60400   0.07016   0.25000 
C          C       0.43017   0.53455   0.25000 
C          C       0.92984   0.53384   0.25000 
C          C       0.46546   0.89563   0.25000 
C          C       0.46616   0.39600   0.25000 
C          C       0.94777   0.46481   0.25000 
C          C       0.44784   0.96504   0.25000 
C          C       0.53520   0.48296   0.25000 
C          C       0.03496   0.48280   0.25000 
C          C       0.51704   0.05223   0.25000 
C          C       0.51720   0.55216   0.25000 
C          C       0.05223   0.53520   0.25000 
C          C       0.55216   0.03496   0.25000 
C          C       0.46481   0.51704   0.25000 
C          C       0.96504   0.51720   0.25000 
C          C       0.48296   0.94777   0.25000 
C          C       0.48280   0.44784   0.25000 
H          H       0.88318   0.39244   0.25000 
H          H       0.37015   0.94150   0.25000 
H          H       0.60756   0.49073   0.25000 
H          H       0.05850   0.42865   0.25000 
H          H       0.50927   0.11682   0.25000 
H          H       0.57135   0.62985   0.25000 
H          H       0.11682   0.60756   0.25000 
H          H       0.62985   0.05850   0.25000 
H          H       0.39244   0.50927   0.25000 
H          H       0.94150   0.57135   0.25000 
H          H       0.49073   0.88318   0.25000 
H          H       0.42865   0.37015   0.25000 
N          N       0.59834   0.18887   0.25000 
N          N       0.81113   0.40947   0.25000 
N          N       0.59053   0.40166   0.25000 
N          N       0.40166   0.81113   0.25000 
N          N       0.18887   0.59053   0.25000 
N          N       0.40947   0.59834   0.25000 
C          C       0.86012   0.44641   0.25000 
C          C       0.37935   0.87816   0.25000 
C          C       0.55359   0.41371   0.25000 
C          C       0.12184   0.50120   0.25000 
C          C       0.58629   0.13988   0.25000 
C          C       0.49880   0.62065   0.25000 
C          C       0.13988   0.55359   0.25000 
C          C       0.62065   0.12184   0.25000 
C          C       0.44641   0.58629   0.25000 
C          C       0.87816   0.49880   0.25000 
C          C       0.41371   0.86012   0.25000 
C          C       0.50120   0.37935   0.25000 
C          C       0.98295   0.44807   0.25000 
C          C       0.55193   0.53487   0.25000 
C          C       0.46513   0.01705   0.25000 
C          C       0.01705   0.55193   0.25000 
C          C       0.44807   0.46513   0.25000 
C          C       0.53487   0.98295   0.25000 
H          H       0.97055   0.41036   0.25000 
H          H       0.58964   0.56018   0.25000 
H          H       0.43982   0.02945   0.25000 
H          H       0.02945   0.58964   0.25000 
H          H       0.41036   0.43982   0.25000 
H          H       0.56018   0.97055   0.25000 
C          C       0.76898   0.41334   0.25000 
C          C       0.58666   0.35564   0.25000 
C          C       0.64436   0.23102   0.25000 
C          C       0.23102   0.58666   0.25000 
C          C       0.41334   0.64436   0.25000 
C          C       0.35564   0.76898   0.25000 
C          C       0.28157   0.62709   0.25000 
C          C       0.37291   0.65448   0.25000 
C          C       0.34552   0.71843   0.25000 
C          C       0.71843   0.37291   0.25000 
C          C       0.62709   0.34552   0.25000 
C          C       0.65448   0.28157   0.25000 
C          C       0.32151   0.61621   0.25000 
C          C       0.38380   0.70530   0.25000 
C          C       0.29470   0.67849   0.25000 
C          C       0.67849   0.38380   0.25000 
C          C       0.61621   0.29470   0.25000 
C          C       0.70530   0.32151   0.25000 
O          O       0.26023   0.68912   0.25000 
O          O       0.31088   0.57111   0.25000 
O          O       0.42889   0.73977   0.25000 
O          O       0.73977   0.31088   0.25000 
O          O       0.68912   0.42889   0.25000 
O          O       0.57111   0.26023   0.25000 
H          H       0.57023   0.19450   0.25000 
H          H       0.77456   0.44893   0.25000 
H          H       0.34156   0.85394   0.25000 
H          H       0.80550   0.37573   0.25000 
H          H       0.55108   0.32564   0.25000 
H          H       0.14606   0.48761   0.25000 
H          H       0.62427   0.42977   0.25000 
H          H       0.67436   0.22544   0.25000 
H          H       0.51239   0.65844   0.25000 
H          H       0.42977   0.80550   0.25000 
H          H       0.22544   0.55108   0.25000 
H          H       0.65844   0.14606   0.25000 
H          H       0.19450   0.62427   0.25000 
H          H       0.44893   0.67436   0.25000 
H          H       0.85394   0.51239   0.25000 
H          H       0.37573   0.57023   0.25000 
H          H       0.32564   0.77456   0.25000 
H          H       0.48761   0.34156   0.25000 
C          C       0.89563   0.43017   0.75001 
C          C       0.39600   0.92984   0.75001 
C          C       0.56983   0.46546   0.75001 
C          C       0.07016   0.46616   0.75001 
C          C       0.53455   0.10438   0.75001 
C          C       0.53384   0.60400   0.75001 
C          C       0.10438   0.56983   0.75001 
C          C       0.60400   0.07016   0.75001 
C          C       0.43017   0.53455   0.75001 
C          C       0.92984   0.53384   0.75001 
C          C       0.46546   0.89563   0.75001 
C          C       0.46616   0.39600   0.75001 
C          C       0.94777   0.46481   0.75001 
C          C       0.44784   0.96504   0.75001 
C          C       0.53520   0.48296   0.75001 
C          C       0.03496   0.48280   0.75001 
C          C       0.51704   0.05223   0.75001 
C          C       0.51720   0.55216   0.75001 
C          C       0.05223   0.53520   0.75001 
C          C       0.55216   0.03496   0.75001 
C          C       0.46481   0.51704   0.75001 
C          C       0.96504   0.51720   0.75001 
C          C       0.48296   0.94777   0.75001 
C          C       0.48280   0.44784   0.75001 
H          H       0.88318   0.39244   0.75001 
H          H       0.37015   0.94150   0.75001 
H          H       0.60756   0.49073   0.75001 
H          H       0.05850   0.42865   0.75001 
H          H       0.50927   0.11682   0.75001 
H          H       0.57135   0.62985   0.75001 
H          H       0.11682   0.60756   0.75001 
H          H       0.62985   0.05850   0.75001 
H          H       0.39244   0.50927   0.75001 
H          H       0.94150   0.57135   0.75001 
H          H       0.49073   0.88318   0.75001 
H          H       0.42865   0.37015   0.75001 
N          N       0.59834   0.18887   0.75001 
N          N       0.81113   0.40947   0.75001 
N          N       0.59053   0.40166   0.75001 
N          N       0.40166   0.81113   0.75001 
N          N       0.18887   0.59053   0.75001 
N          N       0.40947   0.59834   0.75001 
C          C       0.86012   0.44641   0.75001 
C          C       0.37935   0.87816   0.75001 
C          C       0.55359   0.41371   0.75001 
C          C       0.12184   0.50120   0.75001 
C          C       0.58629   0.13988   0.75001 
C          C       0.49880   0.62065   0.75001 
C          C       0.13988   0.55359   0.75001 
C          C       0.62065   0.12184   0.75001 
C          C       0.44641   0.58629   0.75001 
C          C       0.87816   0.49880   0.75001 
C          C       0.41371   0.86012   0.75001 
C          C       0.50120   0.37935   0.75001 
C          C       0.98295   0.44807   0.75001 
C          C       0.55193   0.53487   0.75001 
C          C       0.46513   0.01705   0.75001 
C          C       0.01705   0.55193   0.75001 
C          C       0.44807   0.46513   0.75001 
C          C       0.53487   0.98295   0.75001 
H          H       0.97055   0.41036   0.75001 
H          H       0.58964   0.56018   0.75001 
H          H       0.43982   0.02945   0.75001 
H          H       0.02945   0.58964   0.75001 
H          H       0.41036   0.43982   0.75001 
H          H       0.56018   0.97055   0.75001 
C          C       0.76898   0.41334   0.75001 
C          C       0.58666   0.35564   0.75001 
C          C       0.64436   0.23102   0.75001 
C          C       0.23102   0.58666   0.75001 
C          C       0.41334   0.64436   0.75001 
C          C       0.35564   0.76898   0.75001 
C          C       0.28157   0.62709   0.75001 
C          C       0.37291   0.65448   0.75001 
C          C       0.34552   0.71843   0.75001 
C          C       0.71843   0.37291   0.75001 
C          C       0.62709   0.34552   0.75001 
C          C       0.65448   0.28157   0.75001 
C          C       0.32151   0.61621   0.75001 
C          C       0.38380   0.70530   0.75001 
C          C       0.29470   0.67849   0.75001 
C          C       0.67849   0.38380   0.75001 
C          C       0.61621   0.29470   0.75001 
C          C       0.70530   0.32151   0.75001 
O          O       0.26023   0.68912   0.75001 
O          O       0.31088   0.57111   0.75001 
O          O       0.42889   0.73977   0.75001 
O          O       0.73977   0.31088   0.75001 
O          O       0.68912   0.42889   0.75001 
O          O       0.57111   0.26023   0.75001 
H          H       0.57023   0.19450   0.75001 
H          H       0.77456   0.44893   0.75001 
H          H       0.34156   0.85394   0.75001 
H          H       0.80550   0.37573   0.75001 
H          H       0.55108   0.32564   0.75001 
H          H       0.14606   0.48761   0.75001 
H          H       0.62427   0.42977   0.75001 
H          H       0.67436   0.22544   0.75001 
H          H       0.51239   0.65844   0.75001 
H          H       0.42977   0.80550   0.75001 
H          H       0.22544   0.55108   0.75001 
H          H       0.65844   0.14606   0.75001 
H          H       0.19450   0.62427   0.75001 
H          H       0.44893   0.67436   0.75001 
H          H       0.85394   0.51239   0.75001 
H          H       0.37573   0.57023   0.75001 
H          H       0.32564   0.77456   0.75001 
H          H       0.48761   0.34156   0.75001 
