data_crystal
 
_cell_length_a    27.93010
_cell_length_b    28.25510
_cell_length_c    7.06000
_cell_angle_alpha 90.00000
_cell_angle_beta  90.00000
_cell_angle_gamma 119.93060
 
_symmetry_space_group_name_Hall 'P 1'
_symmetry_space_group_name_H-M  'P 1'
 
loop_
_symmetry_equiv_pos_as_xyz
 'x,y,z' 
 
loop_
_atom_site_label
_atom_site_type_symbol
_atom_site_fract_x
_atom_site_fract_y
_atom_site_fract_z
C          C       0.42480   0.44225   0.25000 
C          C       0.47239   0.49580   0.25000 
H          H       0.42661   0.40727   0.25000 
N          N       0.69170   0.53994   0.25000 
C          C       0.37156   0.43528   0.25000 
C          C       0.05665   0.48081   0.25000 
C          C       0.00328   0.47631   0.25000 
H          H       0.09272   0.51691   0.25000 
N          N       0.96498   0.65272   0.25000 
C          C       0.06204   0.43415   0.25000 
C          C       0.01673   0.07437   0.25000 
C          C       0.02333   0.02727   0.25000 
H          H       0.97956   0.07263   0.25000 
N          N       0.84892   0.81059   0.25000 
C          C       0.06286   0.12697   0.25000 
C          C       0.87436   0.90828   0.25000 
C          C       0.92051   0.96161   0.25000 
H          H       0.83488   0.90149   0.25000 
N          N       0.06673   0.17580   0.25000 
C          C       0.88402   0.86434   0.25000 
C          C       0.03695   0.62533   0.25000 
C          C       0.04284   0.57852   0.25000 
H          H       0.07034   0.66386   0.25000 
N          N       0.10727   0.42953   0.25000 
C          C       0.98352   0.61754   0.25000 
C          C       0.59291   0.46751   0.25000 
C          C       0.53893   0.45983   0.25000 
H          H       0.59985   0.43530   0.25000 
N          N       0.32219   0.39033   0.25000 
C          C       0.63732   0.52094   0.25000 
C          C       0.28232   0.40448   0.25000 
C          C       0.77614   0.63190   0.25000 
C          C       0.09120   0.37548   0.25000 
C          C       0.87245   0.64653   0.25000 
C          C       0.12085   0.21516   0.25000 
C          C       0.85754   0.72704   0.25000 
C          C       0.81391   0.61182   0.25000 
C          C       0.89274   0.70390   0.25000 
C          C       0.79950   0.68976   0.25000 
O          O       0.76753   0.70893   0.25000 
O          O       0.79462   0.56108   0.25000 
O          O       0.94402   0.73546   0.25000 
H          H       0.08259   0.58657   0.25000 
H          H       0.91096   0.99192   0.25000 
H          H       0.50832   0.42013   0.25000 
H          H       0.31606   0.35347   0.25000 
H          H       0.03559   0.18191   0.25000 
H          H       0.98807   0.69207   0.25000 
C          C       0.57520   0.55775   0.25000 
C          C       0.52761   0.50420   0.25000 
H          H       0.57339   0.59273   0.25000 
N          N       0.30830   0.46006   0.25000 
C          C       0.62844   0.56472   0.25000 
C          C       0.94335   0.51919   0.25000 
C          C       0.99672   0.52369   0.25000 
H          H       0.90728   0.48309   0.25000 
N          N       0.03502   0.34728   0.25000 
C          C       0.93796   0.56585   0.25000 
C          C       0.98327   0.92563   0.25000 
C          C       0.97667   0.97273   0.25000 
H          H       0.02044   0.92737   0.25000 
N          N       0.15108   0.18941   0.25000 
C          C       0.93714   0.87303   0.25000 
C          C       0.12564   0.09172   0.25000 
C          C       0.07949   0.03839   0.25000 
H          H       0.16512   0.09851   0.25000 
N          N       0.93327   0.82420   0.25000 
C          C       0.11598   0.13566   0.25000 
C          C       0.96305   0.37467   0.25000 
C          C       0.95716   0.42148   0.25000 
H          H       0.92966   0.33614   0.25000 
N          N       0.89273   0.57047   0.25000 
C          C       0.01648   0.38246   0.25000 
C          C       0.40709   0.53249   0.25000 
C          C       0.46107   0.54017   0.25000 
H          H       0.40015   0.56470   0.25000 
N          N       0.67781   0.60967   0.25000 
C          C       0.36268   0.47906   0.25000 
C          C       0.71768   0.59552   0.25000 
C          C       0.22386   0.36810   0.25000 
C          C       0.90880   0.62452   0.25000 
C          C       0.12755   0.35347   0.25000 
C          C       0.87915   0.78484   0.25000 
C          C       0.14246   0.27296   0.25000 
C          C       0.18609   0.38818   0.25000 
C          C       0.10726   0.29610   0.25000 
C          C       0.20050   0.31024   0.25000 
O          O       0.23247   0.29107   0.25000 
O          O       0.20538   0.43892   0.25000 
O          O       0.05598   0.26454   0.25000 
H          H       0.91741   0.41343   0.25000 
H          H       0.08904   0.00808   0.25000 
H          H       0.49168   0.57987   0.25000 
H          H       0.68394   0.64653   0.25000 
H          H       0.96441   0.81809   0.25000 
H          H       0.01193   0.30793   0.25000 
C          C       0.42480   0.44225   0.75000 
C          C       0.47239   0.49580   0.75000 
H          H       0.42661   0.40727   0.75000 
N          N       0.69170   0.53994   0.75000 
C          C       0.37156   0.43528   0.75000 
C          C       0.05665   0.48081   0.75000 
C          C       0.00328   0.47631   0.75000 
H          H       0.09272   0.51691   0.75000 
N          N       0.96498   0.65272   0.75000 
C          C       0.06204   0.43415   0.75000 
C          C       0.01673   0.07437   0.75000 
C          C       0.02333   0.02727   0.75000 
H          H       0.97956   0.07263   0.75000 
N          N       0.84892   0.81059   0.75000 
C          C       0.06286   0.12697   0.75000 
C          C       0.87436   0.90828   0.75000 
C          C       0.92051   0.96161   0.75000 
H          H       0.83488   0.90149   0.75000 
N          N       0.06673   0.17580   0.75000 
C          C       0.88402   0.86434   0.75000 
C          C       0.03695   0.62533   0.75000 
C          C       0.04284   0.57852   0.75000 
H          H       0.07034   0.66386   0.75000 
N          N       0.10727   0.42953   0.75000 
C          C       0.98352   0.61754   0.75000 
C          C       0.59291   0.46751   0.75000 
C          C       0.53893   0.45983   0.75000 
H          H       0.59985   0.43530   0.75000 
N          N       0.32219   0.39033   0.75000 
C          C       0.63732   0.52094   0.75000 
C          C       0.28232   0.40448   0.75000 
C          C       0.77614   0.63190   0.75000 
C          C       0.09120   0.37548   0.75000 
C          C       0.87245   0.64653   0.75000 
C          C       0.12085   0.21516   0.75000 
C          C       0.85754   0.72704   0.75000 
C          C       0.81391   0.61182   0.75000 
C          C       0.89274   0.70390   0.75000 
C          C       0.79950   0.68976   0.75000 
O          O       0.76753   0.70893   0.75000 
O          O       0.79462   0.56108   0.75000 
O          O       0.94402   0.73546   0.75000 
H          H       0.08259   0.58657   0.75000 
H          H       0.91096   0.99192   0.75000 
H          H       0.50832   0.42013   0.75000 
H          H       0.31606   0.35347   0.75000 
H          H       0.03559   0.18191   0.75000 
H          H       0.98807   0.69207   0.75000 
C          C       0.57520   0.55775   0.75000 
C          C       0.52761   0.50420   0.75000 
H          H       0.57339   0.59273   0.75000 
N          N       0.30830   0.46006   0.75000 
C          C       0.62844   0.56472   0.75000 
C          C       0.94335   0.51919   0.75000 
C          C       0.99672   0.52369   0.75000 
H          H       0.90728   0.48309   0.75000 
N          N       0.03502   0.34728   0.75000 
C          C       0.93796   0.56585   0.75000 
C          C       0.98327   0.92563   0.75000 
C          C       0.97667   0.97273   0.75000 
H          H       0.02044   0.92737   0.75000 
N          N       0.15108   0.18941   0.75000 
C          C       0.93714   0.87303   0.75000 
C          C       0.12564   0.09172   0.75000 
C          C       0.07949   0.03839   0.75000 
H          H       0.16512   0.09851   0.75000 
N          N       0.93327   0.82420   0.75000 
C          C       0.11598   0.13566   0.75000 
C          C       0.96305   0.37467   0.75000 
C          C       0.95716   0.42148   0.75000 
H          H       0.92966   0.33614   0.75000 
N          N       0.89273   0.57047   0.75000 
C          C       0.01648   0.38246   0.75000 
C          C       0.40709   0.53249   0.75000 
C          C       0.46107   0.54017   0.75000 
H          H       0.40015   0.56470   0.75000 
N          N       0.67781   0.60967   0.75000 
C          C       0.36268   0.47906   0.75000 
C          C       0.71768   0.59552   0.75000 
C          C       0.22386   0.36810   0.75000 
C          C       0.90880   0.62452   0.75000 
C          C       0.12755   0.35347   0.75000 
C          C       0.87915   0.78484   0.75000 
C          C       0.14246   0.27296   0.75000 
C          C       0.18609   0.38818   0.75000 
C          C       0.10726   0.29610   0.75000 
C          C       0.20050   0.31024   0.75000 
O          O       0.23247   0.29107   0.75000 
O          O       0.20538   0.43892   0.75000 
O          O       0.05598   0.26454   0.75000 
H          H       0.91741   0.41343   0.75000 
H          H       0.08904   0.00808   0.75000 
H          H       0.49168   0.57987   0.75000 
H          H       0.68394   0.64653   0.75000 
H          H       0.96441   0.81809   0.75000 
H          H       0.01193   0.30793   0.75000 
