data_crystal
 
_cell_length_a    42.26010
_cell_length_b    45.01260
_cell_length_c    7.81520
_cell_angle_alpha 90.00000
_cell_angle_beta  90.00000
_cell_angle_gamma 90.00000
 
_symmetry_space_group_name_Hall 'P 1'
_symmetry_space_group_name_H-M  'P 1'
 
loop_
_symmetry_equiv_pos_as_xyz
 'x,y,z' 
 
loop_
_atom_site_label
_atom_site_type_symbol
_atom_site_fract_x
_atom_site_fract_y
_atom_site_fract_z
_atom_site_charge
C          C       0.53413   0.52735  -0.03871   0.0000000000
C          C       0.48348   0.55337  -0.07167   0.0000000000
C          C       0.43244   0.52771  -0.01140   0.0000000000
C          C       0.41302   0.55364  -0.00334   0.0000000000
C          C       0.38301   0.55439  -0.08517   0.0000000000
C          C       0.36323   0.57947  -0.07580   0.0000000000
C          C       0.37304   0.60522   0.01158   0.0000000000
C          C       0.40286   0.60498   0.09315   0.0000000000
C          C       0.42201   0.57944   0.08836   0.0000000000
H          H       0.47274   0.57319  -0.09530   0.0000000000
H          H       0.37514   0.53658  -0.15452   0.0000000000
H          H       0.34166   0.57887  -0.13543   0.0000000000
H          H       0.41082   0.62310   0.15890   0.0000000000
H          H       0.44276   0.57997   0.15459   0.0000000000
C          C       0.03413   0.02735   0.07058   0.0000000000
C          C       0.98348   0.05337   0.10354   0.0000000000
C          C       0.93244   0.02771   0.04327   0.0000000000
C          C       0.91302   0.05364   0.03522   0.0000000000
C          C       0.92201   0.07944  -0.05648   0.0000000000
C          C       0.90286   0.10498  -0.06128   0.0000000000
C          C       0.87304   0.10522   0.02029   0.0000000000
C          C       0.86323   0.07947   0.10768   0.0000000000
C          C       0.88301   0.05439   0.11705   0.0000000000
H          H       0.97274   0.07319   0.12717   0.0000000000
H          H       0.94276   0.07997  -0.12271   0.0000000000
H          H       0.91082   0.12310  -0.12702   0.0000000000
H          H       0.84166   0.07887   0.16731   0.0000000000
H          H       0.87514   0.03658   0.18639   0.0000000000
C          C       0.16897   0.82262  -0.02884   0.0000000000
C          C       0.16398   0.79315  -0.08625   0.0000000000
C          C       0.18795   0.77158  -0.07323   0.0000000000
C          C       0.21761   0.77908  -0.00255   0.0000000000
C          C       0.22297   0.80837   0.05466   0.0000000000
C          C       0.19890   0.82984   0.04160   0.0000000000
C          C       0.23982   0.75915   0.01006   0.0000000000
C          C       0.26018   0.74085   0.02180   0.0000000000
C          C       0.28239   0.72092   0.03442   0.0000000000
C          C       0.31205   0.72842   0.10511   0.0000000000
C          C       0.33602   0.70685   0.11812   0.0000000000
C          C       0.33103   0.67738   0.06072   0.0000000000
C          C       0.30110   0.67016  -0.00972   0.0000000000
C          C       0.27703   0.69163  -0.02278   0.0000000000
H          H       0.14273   0.78702  -0.13834   0.0000000000
H          H       0.18346   0.75047  -0.11601   0.0000000000
H          H       0.24430   0.81440   0.10653   0.0000000000
H          H       0.20358   0.85086   0.08451   0.0000000000
H          H       0.31654   0.74953   0.14788   0.0000000000
H          H       0.35727   0.71298   0.17022   0.0000000000
H          H       0.29641   0.64914  -0.05264   0.0000000000
H          H       0.25570   0.68560  -0.07466   0.0000000000
C          C       0.14443   0.84368  -0.04302   0.0000000000
N          N       0.14727   0.87149   0.02074   0.0000000000
N          N       0.35273   0.62851   0.01113   0.0000000000
C          C       0.35557   0.65632   0.07490   0.0000000000
H          H       0.87614   0.16237  -0.10239   0.0000000000
H          H       0.62386   0.33763   0.13426   0.0000000000
C          C       0.46587   0.47265  -0.03871   0.0000000000
C          C       0.51651   0.44663  -0.07167   0.0000000000
C          C       0.56756   0.47229  -0.01140   0.0000000000
C          C       0.58697   0.44636  -0.00334   0.0000000000
C          C       0.61699   0.44561  -0.08517   0.0000000000
C          C       0.63677   0.42053  -0.07580   0.0000000000
C          C       0.62696   0.39478   0.01158   0.0000000000
C          C       0.59714   0.39502   0.09315   0.0000000000
C          C       0.57799   0.42056   0.08836   0.0000000000
H          H       0.52726   0.42681  -0.09530   0.0000000000
H          H       0.62486   0.46342  -0.15452   0.0000000000
H          H       0.65834   0.42113  -0.13543   0.0000000000
H          H       0.58918   0.37690   0.15890   0.0000000000
H          H       0.55724   0.42003   0.15459   0.0000000000
C          C       0.96587   0.97265   0.07058   0.0000000000
C          C       0.01652   0.94663   0.10354   0.0000000000
C          C       0.06756   0.97229   0.04327   0.0000000000
C          C       0.08697   0.94636   0.03522   0.0000000000
C          C       0.07799   0.92056  -0.05648   0.0000000000
C          C       0.09714   0.89502  -0.06128   0.0000000000
C          C       0.12696   0.89478   0.02029   0.0000000000
C          C       0.13677   0.92053   0.10768   0.0000000000
C          C       0.11699   0.94561   0.11705   0.0000000000
H          H       0.02726   0.92681   0.12717   0.0000000000
H          H       0.05724   0.92003  -0.12271   0.0000000000
H          H       0.08918   0.87690  -0.12702   0.0000000000
H          H       0.15834   0.92113   0.16731   0.0000000000
H          H       0.12486   0.96342   0.18639   0.0000000000
C          C       0.83103   0.17738  -0.02884   0.0000000000
C          C       0.83602   0.20685  -0.08625   0.0000000000
C          C       0.81205   0.22842  -0.07323   0.0000000000
C          C       0.78239   0.22092  -0.00255   0.0000000000
C          C       0.77703   0.19163   0.05466   0.0000000000
C          C       0.80110   0.17016   0.04160   0.0000000000
C          C       0.76018   0.24086   0.01006   0.0000000000
C          C       0.73982   0.25915   0.02180   0.0000000000
C          C       0.71761   0.27908   0.03442   0.0000000000
C          C       0.68795   0.27158   0.10511   0.0000000000
C          C       0.66398   0.29315   0.11812   0.0000000000
C          C       0.66897   0.32262   0.06072   0.0000000000
C          C       0.69890   0.32984  -0.00972   0.0000000000
C          C       0.72297   0.30837  -0.02278   0.0000000000
H          H       0.85727   0.21298  -0.13834   0.0000000000
H          H       0.81654   0.24953  -0.11601   0.0000000000
H          H       0.75570   0.18560   0.10653   0.0000000000
H          H       0.79641   0.14914   0.08451   0.0000000000
H          H       0.68346   0.25047   0.14788   0.0000000000
H          H       0.64273   0.28702   0.17022   0.0000000000
H          H       0.70358   0.35086  -0.05264   0.0000000000
H          H       0.74430   0.31440  -0.07466   0.0000000000
C          C       0.85557   0.15632  -0.04302   0.0000000000
N          N       0.85273   0.12851   0.02074   0.0000000000
N          N       0.64727   0.37149   0.01113   0.0000000000
C          C       0.64443   0.34368   0.07490   0.0000000000
H          H       0.12386   0.83763  -0.10239   0.0000000000
H          H       0.37614   0.66237   0.13426   0.0000000000
C          C       0.53413   0.47265  -0.03871   0.0000000000
C          C       0.48348   0.44663  -0.07167   0.0000000000
C          C       0.43244   0.47229  -0.01140   0.0000000000
C          C       0.41302   0.44636  -0.00334   0.0000000000
C          C       0.38301   0.44561  -0.08517   0.0000000000
C          C       0.36323   0.42053  -0.07580   0.0000000000
C          C       0.37304   0.39478   0.01158   0.0000000000
C          C       0.40286   0.39502   0.09315   0.0000000000
C          C       0.42201   0.42056   0.08836   0.0000000000
H          H       0.47274   0.42681  -0.09530   0.0000000000
H          H       0.37514   0.46342  -0.15452   0.0000000000
H          H       0.34166   0.42113  -0.13543   0.0000000000
H          H       0.41082   0.37690   0.15890   0.0000000000
H          H       0.44276   0.42003   0.15459   0.0000000000
C          C       0.03413   0.97265   0.07058   0.0000000000
C          C       0.98348   0.94663   0.10354   0.0000000000
C          C       0.93244   0.97229   0.04327   0.0000000000
C          C       0.91302   0.94636   0.03522   0.0000000000
C          C       0.92201   0.92056  -0.05648   0.0000000000
C          C       0.90286   0.89502  -0.06128   0.0000000000
C          C       0.87304   0.89478   0.02029   0.0000000000
C          C       0.86323   0.92053   0.10768   0.0000000000
C          C       0.88301   0.94561   0.11705   0.0000000000
H          H       0.97274   0.92681   0.12717   0.0000000000
H          H       0.94276   0.92003  -0.12271   0.0000000000
H          H       0.91082   0.87690  -0.12702   0.0000000000
H          H       0.84166   0.92113   0.16731   0.0000000000
H          H       0.87514   0.96342   0.18639   0.0000000000
C          C       0.16897   0.17738  -0.02884   0.0000000000
C          C       0.16398   0.20685  -0.08625   0.0000000000
C          C       0.18795   0.22842  -0.07323   0.0000000000
C          C       0.21761   0.22092  -0.00255   0.0000000000
C          C       0.22297   0.19163   0.05466   0.0000000000
C          C       0.19890   0.17016   0.04160   0.0000000000
C          C       0.23982   0.24086   0.01006   0.0000000000
C          C       0.26018   0.25915   0.02180   0.0000000000
C          C       0.28239   0.27908   0.03442   0.0000000000
C          C       0.31205   0.27158   0.10511   0.0000000000
C          C       0.33602   0.29315   0.11812   0.0000000000
C          C       0.33103   0.32262   0.06072   0.0000000000
C          C       0.30110   0.32984  -0.00972   0.0000000000
C          C       0.27703   0.30837  -0.02278   0.0000000000
H          H       0.14273   0.21298  -0.13834   0.0000000000
H          H       0.18346   0.24953  -0.11601   0.0000000000
H          H       0.24430   0.18560   0.10653   0.0000000000
H          H       0.20358   0.14914   0.08451   0.0000000000
H          H       0.31654   0.25047   0.14788   0.0000000000
H          H       0.35727   0.28702   0.17022   0.0000000000
H          H       0.29641   0.35086  -0.05264   0.0000000000
H          H       0.25570   0.31440  -0.07466   0.0000000000
C          C       0.14443   0.15632  -0.04302   0.0000000000
N          N       0.14727   0.12851   0.02074   0.0000000000
N          N       0.35273   0.37149   0.01113   0.0000000000
C          C       0.35557   0.34368   0.07490   0.0000000000
H          H       0.87614   0.83763  -0.10239   0.0000000000
H          H       0.62386   0.66237   0.13426   0.0000000000
C          C       0.46587   0.52735  -0.03871   0.0000000000
C          C       0.51651   0.55337  -0.07167   0.0000000000
C          C       0.56756   0.52771  -0.01140   0.0000000000
C          C       0.58697   0.55364  -0.00334   0.0000000000
C          C       0.61699   0.55439  -0.08517   0.0000000000
C          C       0.63677   0.57947  -0.07580   0.0000000000
C          C       0.62696   0.60522   0.01158   0.0000000000
C          C       0.59714   0.60498   0.09315   0.0000000000
C          C       0.57799   0.57944   0.08836   0.0000000000
H          H       0.52726   0.57319  -0.09530   0.0000000000
H          H       0.62486   0.53658  -0.15452   0.0000000000
H          H       0.65834   0.57887  -0.13543   0.0000000000
H          H       0.58918   0.62310   0.15890   0.0000000000
H          H       0.55724   0.57997   0.15459   0.0000000000
C          C       0.96587   0.02735   0.07058   0.0000000000
C          C       0.01652   0.05337   0.10354   0.0000000000
C          C       0.06756   0.02771   0.04327   0.0000000000
C          C       0.08697   0.05364   0.03522   0.0000000000
C          C       0.07799   0.07944  -0.05648   0.0000000000
C          C       0.09714   0.10498  -0.06128   0.0000000000
C          C       0.12696   0.10522   0.02029   0.0000000000
C          C       0.13677   0.07947   0.10768   0.0000000000
C          C       0.11699   0.05439   0.11705   0.0000000000
H          H       0.02726   0.07319   0.12717   0.0000000000
H          H       0.05724   0.07997  -0.12271   0.0000000000
H          H       0.08918   0.12310  -0.12702   0.0000000000
H          H       0.15834   0.07887   0.16731   0.0000000000
H          H       0.12486   0.03658   0.18639   0.0000000000
C          C       0.83103   0.82262  -0.02884   0.0000000000
C          C       0.83602   0.79315  -0.08625   0.0000000000
C          C       0.81205   0.77158  -0.07323   0.0000000000
C          C       0.78239   0.77908  -0.00255   0.0000000000
C          C       0.77703   0.80837   0.05466   0.0000000000
C          C       0.80110   0.82984   0.04160   0.0000000000
C          C       0.76018   0.75915   0.01006   0.0000000000
C          C       0.73982   0.74085   0.02180   0.0000000000
C          C       0.71761   0.72092   0.03442   0.0000000000
C          C       0.68795   0.72842   0.10511   0.0000000000
C          C       0.66398   0.70685   0.11812   0.0000000000
C          C       0.66897   0.67738   0.06072   0.0000000000
C          C       0.69890   0.67016  -0.00972   0.0000000000
C          C       0.72297   0.69163  -0.02278   0.0000000000
H          H       0.85727   0.78702  -0.13834   0.0000000000
H          H       0.81654   0.75047  -0.11601   0.0000000000
H          H       0.75570   0.81440   0.10653   0.0000000000
H          H       0.79641   0.85086   0.08451   0.0000000000
H          H       0.68346   0.74953   0.14788   0.0000000000
H          H       0.64273   0.71298   0.17022   0.0000000000
H          H       0.70358   0.64914  -0.05264   0.0000000000
H          H       0.74430   0.68560  -0.07466   0.0000000000
C          C       0.85557   0.84368  -0.04302   0.0000000000
N          N       0.85273   0.87149   0.02074   0.0000000000
N          N       0.64727   0.62851   0.01113   0.0000000000
C          C       0.64443   0.65632   0.07490   0.0000000000
H          H       0.12386   0.16237  -0.10239   0.0000000000
H          H       0.37614   0.33763   0.13426   0.0000000000
C          C       0.41730   0.50000   0.01198   0.0000000000
C          C       0.51701   0.50000  -0.03744   0.0000000000
H          H       0.39391   0.50000   0.04684   0.0000000000
C          C       0.58270   0.50000   0.01198   0.0000000000
C          C       0.48299   0.50000  -0.03744   0.0000000000
H          H       0.60609   0.50000   0.04684   0.0000000000
C          C       0.91730   0.00000   0.01989   0.0000000000
C          C       0.01701   0.00000   0.06932   0.0000000000
H          H       0.89391  -0.00000  -0.01496   0.0000000000
C          C       0.08270   0.00000   0.01989   0.0000000000
C          C       0.98299   0.00000   0.06932   0.0000000000
H          H       0.10609  -0.00000  -0.01496   0.0000000000
C          C       0.53413   0.52735   0.46129   0.0000000000
C          C       0.48348   0.55337   0.42833   0.0000000000
C          C       0.43244   0.52771   0.48860   0.0000000000
C          C       0.41302   0.55364   0.49665   0.0000000000
C          C       0.38301   0.55439   0.41483   0.0000000000
C          C       0.36323   0.57947   0.42419   0.0000000000
C          C       0.37304   0.60522   0.51158   0.0000000000
C          C       0.40286   0.60498   0.59315   0.0000000000
C          C       0.42201   0.57944   0.58836   0.0000000000
H          H       0.47274   0.57319   0.40470   0.0000000000
H          H       0.37514   0.53658   0.34548   0.0000000000
H          H       0.34166   0.57887   0.36457   0.0000000000
H          H       0.41082   0.62310   0.65890   0.0000000000
H          H       0.44276   0.57997   0.65458   0.0000000000
C          C       0.03413   0.02735   0.57058   0.0000000000
C          C       0.98348   0.05337   0.60354   0.0000000000
C          C       0.93244   0.02771   0.54327   0.0000000000
C          C       0.91302   0.05364   0.53522   0.0000000000
C          C       0.92201   0.07944   0.44351   0.0000000000
C          C       0.90286   0.10498   0.43872   0.0000000000
C          C       0.87304   0.10522   0.52029   0.0000000000
C          C       0.86323   0.07947   0.60768   0.0000000000
C          C       0.88301   0.05439   0.61705   0.0000000000
H          H       0.97274   0.07319   0.62717   0.0000000000
H          H       0.94276   0.07997   0.37729   0.0000000000
H          H       0.91082   0.12310   0.37297   0.0000000000
H          H       0.84166   0.07887   0.66731   0.0000000000
H          H       0.87514   0.03658   0.68639   0.0000000000
C          C       0.16897   0.82262   0.47115   0.0000000000
C          C       0.16398   0.79315   0.41375   0.0000000000
C          C       0.18795   0.77158   0.42677   0.0000000000
C          C       0.21761   0.77908   0.49745   0.0000000000
C          C       0.22297   0.80837   0.55466   0.0000000000
C          C       0.19890   0.82984   0.54160   0.0000000000
C          C       0.23982   0.75915   0.51006   0.0000000000
C          C       0.26018   0.74085   0.52180   0.0000000000
C          C       0.28239   0.72092   0.53442   0.0000000000
C          C       0.31205   0.72842   0.60511   0.0000000000
C          C       0.33602   0.70685   0.61812   0.0000000000
C          C       0.33103   0.67738   0.56072   0.0000000000
C          C       0.30110   0.67016   0.49027   0.0000000000
C          C       0.27703   0.69163   0.47721   0.0000000000
H          H       0.14273   0.78702   0.36165   0.0000000000
H          H       0.18346   0.75047   0.38399   0.0000000000
H          H       0.24430   0.81440   0.60653   0.0000000000
H          H       0.20358   0.85086   0.58451   0.0000000000
H          H       0.31654   0.74953   0.64788   0.0000000000
H          H       0.35727   0.71298   0.67022   0.0000000000
H          H       0.29641   0.64914   0.44736   0.0000000000
H          H       0.25570   0.68560   0.42533   0.0000000000
C          C       0.14443   0.84368   0.45698   0.0000000000
N          N       0.14727   0.87149   0.52075   0.0000000000
N          N       0.35273   0.62851   0.51113   0.0000000000
C          C       0.35557   0.65632   0.57489   0.0000000000
H          H       0.87614   0.16237   0.39761   0.0000000000
H          H       0.62386   0.33763   0.63426   0.0000000000
C          C       0.46587   0.47265   0.46129   0.0000000000
C          C       0.51651   0.44663   0.42833   0.0000000000
C          C       0.56756   0.47229   0.48860   0.0000000000
C          C       0.58697   0.44636   0.49665   0.0000000000
C          C       0.61699   0.44561   0.41483   0.0000000000
C          C       0.63677   0.42053   0.42419   0.0000000000
C          C       0.62696   0.39478   0.51158   0.0000000000
C          C       0.59714   0.39502   0.59315   0.0000000000
C          C       0.57799   0.42056   0.58836   0.0000000000
H          H       0.52726   0.42681   0.40470   0.0000000000
H          H       0.62486   0.46342   0.34548   0.0000000000
H          H       0.65834   0.42113   0.36457   0.0000000000
H          H       0.58918   0.37690   0.65890   0.0000000000
H          H       0.55724   0.42003   0.65458   0.0000000000
C          C       0.96587   0.97265   0.57058   0.0000000000
C          C       0.01652   0.94663   0.60354   0.0000000000
C          C       0.06756   0.97229   0.54327   0.0000000000
C          C       0.08697   0.94636   0.53522   0.0000000000
C          C       0.07799   0.92056   0.44351   0.0000000000
C          C       0.09714   0.89502   0.43872   0.0000000000
C          C       0.12696   0.89478   0.52029   0.0000000000
C          C       0.13677   0.92053   0.60768   0.0000000000
C          C       0.11699   0.94561   0.61705   0.0000000000
H          H       0.02726   0.92681   0.62717   0.0000000000
H          H       0.05724   0.92003   0.37729   0.0000000000
H          H       0.08918   0.87690   0.37297   0.0000000000
H          H       0.15834   0.92113   0.66731   0.0000000000
H          H       0.12486   0.96342   0.68639   0.0000000000
C          C       0.83103   0.17738   0.47115   0.0000000000
C          C       0.83602   0.20685   0.41375   0.0000000000
C          C       0.81205   0.22842   0.42677   0.0000000000
C          C       0.78239   0.22092   0.49745   0.0000000000
C          C       0.77703   0.19163   0.55466   0.0000000000
C          C       0.80110   0.17016   0.54160   0.0000000000
C          C       0.76018   0.24086   0.51006   0.0000000000
C          C       0.73982   0.25915   0.52180   0.0000000000
C          C       0.71761   0.27908   0.53442   0.0000000000
C          C       0.68795   0.27158   0.60511   0.0000000000
C          C       0.66398   0.29315   0.61812   0.0000000000
C          C       0.66897   0.32262   0.56072   0.0000000000
C          C       0.69890   0.32984   0.49027   0.0000000000
C          C       0.72297   0.30837   0.47721   0.0000000000
H          H       0.85727   0.21298   0.36165   0.0000000000
H          H       0.81654   0.24953   0.38399   0.0000000000
H          H       0.75570   0.18560   0.60653   0.0000000000
H          H       0.79641   0.14914   0.58451   0.0000000000
H          H       0.68346   0.25047   0.64788   0.0000000000
H          H       0.64273   0.28702   0.67022   0.0000000000
H          H       0.70358   0.35086   0.44736   0.0000000000
H          H       0.74430   0.31440   0.42533   0.0000000000
C          C       0.85557   0.15632   0.45698   0.0000000000
N          N       0.85273   0.12851   0.52075   0.0000000000
N          N       0.64727   0.37149   0.51113   0.0000000000
C          C       0.64443   0.34368   0.57489   0.0000000000
H          H       0.12386   0.83763   0.39761   0.0000000000
H          H       0.37614   0.66237   0.63426   0.0000000000
C          C       0.53413   0.47265   0.46129   0.0000000000
C          C       0.48348   0.44663   0.42833   0.0000000000
C          C       0.43244   0.47229   0.48860   0.0000000000
C          C       0.41302   0.44636   0.49665   0.0000000000
C          C       0.38301   0.44561   0.41483   0.0000000000
C          C       0.36323   0.42053   0.42419   0.0000000000
C          C       0.37304   0.39478   0.51158   0.0000000000
C          C       0.40286   0.39502   0.59315   0.0000000000
C          C       0.42201   0.42056   0.58836   0.0000000000
H          H       0.47274   0.42681   0.40470   0.0000000000
H          H       0.37514   0.46342   0.34548   0.0000000000
H          H       0.34166   0.42113   0.36457   0.0000000000
H          H       0.41082   0.37690   0.65890   0.0000000000
H          H       0.44276   0.42003   0.65458   0.0000000000
C          C       0.03413   0.97265   0.57058   0.0000000000
C          C       0.98348   0.94663   0.60354   0.0000000000
C          C       0.93244   0.97229   0.54327   0.0000000000
C          C       0.91302   0.94636   0.53522   0.0000000000
C          C       0.92201   0.92056   0.44351   0.0000000000
C          C       0.90286   0.89502   0.43872   0.0000000000
C          C       0.87304   0.89478   0.52029   0.0000000000
C          C       0.86323   0.92053   0.60768   0.0000000000
C          C       0.88301   0.94561   0.61705   0.0000000000
H          H       0.97274   0.92681   0.62717   0.0000000000
H          H       0.94276   0.92003   0.37729   0.0000000000
H          H       0.91082   0.87690   0.37297   0.0000000000
H          H       0.84166   0.92113   0.66731   0.0000000000
H          H       0.87514   0.96342   0.68639   0.0000000000
C          C       0.16897   0.17738   0.47115   0.0000000000
C          C       0.16398   0.20685   0.41375   0.0000000000
C          C       0.18795   0.22842   0.42677   0.0000000000
C          C       0.21761   0.22092   0.49745   0.0000000000
C          C       0.22297   0.19163   0.55466   0.0000000000
C          C       0.19890   0.17016   0.54160   0.0000000000
C          C       0.23982   0.24086   0.51006   0.0000000000
C          C       0.26018   0.25915   0.52180   0.0000000000
C          C       0.28239   0.27908   0.53442   0.0000000000
C          C       0.31205   0.27158   0.60511   0.0000000000
C          C       0.33602   0.29315   0.61812   0.0000000000
C          C       0.33103   0.32262   0.56072   0.0000000000
C          C       0.30110   0.32984   0.49027   0.0000000000
C          C       0.27703   0.30837   0.47721   0.0000000000
H          H       0.14273   0.21298   0.36165   0.0000000000
H          H       0.18346   0.24953   0.38399   0.0000000000
H          H       0.24430   0.18560   0.60653   0.0000000000
H          H       0.20358   0.14914   0.58451   0.0000000000
H          H       0.31654   0.25047   0.64788   0.0000000000
H          H       0.35727   0.28702   0.67022   0.0000000000
H          H       0.29641   0.35086   0.44736   0.0000000000
H          H       0.25570   0.31440   0.42533   0.0000000000
C          C       0.14443   0.15632   0.45698   0.0000000000
N          N       0.14727   0.12851   0.52075   0.0000000000
N          N       0.35273   0.37149   0.51113   0.0000000000
C          C       0.35557   0.34368   0.57489   0.0000000000
H          H       0.87614   0.83763   0.39761   0.0000000000
H          H       0.62386   0.66237   0.63426   0.0000000000
C          C       0.46587   0.52735   0.46129   0.0000000000
C          C       0.51651   0.55337   0.42833   0.0000000000
C          C       0.56756   0.52771   0.48860   0.0000000000
C          C       0.58697   0.55364   0.49665   0.0000000000
C          C       0.61699   0.55439   0.41483   0.0000000000
C          C       0.63677   0.57947   0.42419   0.0000000000
C          C       0.62696   0.60522   0.51158   0.0000000000
C          C       0.59714   0.60498   0.59315   0.0000000000
C          C       0.57799   0.57944   0.58836   0.0000000000
H          H       0.52726   0.57319   0.40470   0.0000000000
H          H       0.62486   0.53658   0.34548   0.0000000000
H          H       0.65834   0.57887   0.36457   0.0000000000
H          H       0.58918   0.62310   0.65890   0.0000000000
H          H       0.55724   0.57997   0.65458   0.0000000000
C          C       0.96587   0.02735   0.57058   0.0000000000
C          C       0.01652   0.05337   0.60354   0.0000000000
C          C       0.06756   0.02771   0.54327   0.0000000000
C          C       0.08697   0.05364   0.53522   0.0000000000
C          C       0.07799   0.07944   0.44351   0.0000000000
C          C       0.09714   0.10498   0.43872   0.0000000000
C          C       0.12696   0.10522   0.52029   0.0000000000
C          C       0.13677   0.07947   0.60768   0.0000000000
C          C       0.11699   0.05439   0.61705   0.0000000000
H          H       0.02726   0.07319   0.62717   0.0000000000
H          H       0.05724   0.07997   0.37729   0.0000000000
H          H       0.08918   0.12310   0.37297   0.0000000000
H          H       0.15834   0.07887   0.66731   0.0000000000
H          H       0.12486   0.03658   0.68639   0.0000000000
C          C       0.83103   0.82262   0.47115   0.0000000000
C          C       0.83602   0.79315   0.41375   0.0000000000
C          C       0.81205   0.77158   0.42677   0.0000000000
C          C       0.78239   0.77908   0.49745   0.0000000000
C          C       0.77703   0.80837   0.55466   0.0000000000
C          C       0.80110   0.82984   0.54160   0.0000000000
C          C       0.76018   0.75915   0.51006   0.0000000000
C          C       0.73982   0.74085   0.52180   0.0000000000
C          C       0.71761   0.72092   0.53442   0.0000000000
C          C       0.68795   0.72842   0.60511   0.0000000000
C          C       0.66398   0.70685   0.61812   0.0000000000
C          C       0.66897   0.67738   0.56072   0.0000000000
C          C       0.69890   0.67016   0.49027   0.0000000000
C          C       0.72297   0.69163   0.47721   0.0000000000
H          H       0.85727   0.78702   0.36165   0.0000000000
H          H       0.81654   0.75047   0.38399   0.0000000000
H          H       0.75570   0.81440   0.60653   0.0000000000
H          H       0.79641   0.85086   0.58451   0.0000000000
H          H       0.68346   0.74953   0.64788   0.0000000000
H          H       0.64273   0.71298   0.67022   0.0000000000
H          H       0.70358   0.64914   0.44736   0.0000000000
H          H       0.74430   0.68560   0.42533   0.0000000000
C          C       0.85557   0.84368   0.45698   0.0000000000
N          N       0.85273   0.87149   0.52075   0.0000000000
N          N       0.64727   0.62851   0.51113   0.0000000000
C          C       0.64443   0.65632   0.57489   0.0000000000
H          H       0.12386   0.16237   0.39761   0.0000000000
H          H       0.37614   0.33763   0.63426   0.0000000000
C          C       0.41730   0.50000   0.51198   0.0000000000
C          C       0.51701   0.50000   0.46256   0.0000000000
H          H       0.39391   0.50000   0.54684   0.0000000000
C          C       0.58270   0.50000   0.51198   0.0000000000
C          C       0.48299   0.50000   0.46256   0.0000000000
H          H       0.60609   0.50000   0.54684   0.0000000000
C          C       0.91730   0.00000   0.51989   0.0000000000
C          C       0.01701  -0.00000   0.56932   0.0000000000
H          H       0.89391   0.00000   0.48503   0.0000000000
C          C       0.08270   0.00000   0.51989   0.0000000000
C          C       0.98299  -0.00000   0.56932   0.0000000000
H          H       0.10609   0.00000   0.48503   0.0000000000
