data_crystal
 
_cell_length_a    32.56980
_cell_length_b    35.85550
_cell_length_c    4.02000
_cell_angle_alpha 90.00000
_cell_angle_beta  90.00000
_cell_angle_gamma 90.00000
 
_symmetry_space_group_name_Hall 'P 1'
_symmetry_space_group_name_H-M  'P 1'
 
loop_
_symmetry_equiv_pos_as_xyz
 'x,y,z' 
 
loop_
_atom_site_label
_atom_site_type_symbol
_atom_site_fract_x
_atom_site_fract_y
_atom_site_fract_z
_atom_site_charge
C          C       0.54424   0.53435  -0.21660   0.0000000000
C          C       0.47857   0.56712  -0.27798   0.0000000000
C          C       0.41240   0.53475  -0.16403   0.0000000000
C          C       0.38748   0.56738  -0.14270   0.0000000000
C          C       0.34892   0.56925  -0.30660   0.0000000000
C          C       0.32353   0.60086  -0.28086   0.0000000000
C          C       0.33615   0.63228  -0.09718   0.0000000000
C          C       0.37456   0.63101   0.06564   0.0000000000
C          C       0.39919   0.59886   0.04779   0.0000000000
H          H       0.46454   0.59203  -0.32155   0.0000000000
H          H       0.33883   0.54750  -0.44978   0.0000000000
H          H       0.29578   0.60086  -0.40070   0.0000000000
H          H       0.38484   0.65308   0.20269   0.0000000000
H          H       0.42596   0.59872   0.17910   0.0000000000
C          C       0.21834   0.77767   0.00385   0.0000000000
C          C       0.21233   0.74171  -0.13233   0.0000000000
C          C       0.24339   0.71451  -0.11730   0.0000000000
C          C       0.28166   0.72233   0.03447   0.0000000000
C          C       0.28767   0.75829   0.17065   0.0000000000
C          C       0.25661   0.78549   0.15561   0.0000000000
H          H       0.18514   0.73488  -0.24480   0.0000000000
H          H       0.23760   0.68890  -0.21924   0.0000000000
H          H       0.31486   0.76512   0.28313   0.0000000000
H          H       0.26240   0.81110   0.25756   0.0000000000
C          C       0.18665   0.80436  -0.01523   0.0000000000
N          N       0.19007   0.83840   0.12727   0.0000000000
H          H       0.83970   0.20235  -0.13986   0.0000000000
C          C       0.95576   0.03435   0.25499   0.0000000000
C          C       0.02143   0.06712   0.31637   0.0000000000
C          C       0.08760   0.03475   0.20243   0.0000000000
C          C       0.11252   0.06738   0.18109   0.0000000000
C          C       0.15108   0.06925   0.34498   0.0000000000
C          C       0.17647   0.10086   0.31922   0.0000000000
C          C       0.16385   0.13228   0.13554   0.0000000000
C          C       0.12544   0.13101  -0.02728   0.0000000000
C          C       0.10081   0.09886  -0.00941   0.0000000000
H          H       0.03546   0.09203   0.35994   0.0000000000
H          H       0.16117   0.04750   0.48817   0.0000000000
H          H       0.20422   0.10086   0.43906   0.0000000000
H          H       0.11516   0.15308  -0.16433   0.0000000000
H          H       0.07404   0.09872  -0.14071   0.0000000000
C          C       0.31335   0.30436   0.05356   0.0000000000
N          N       0.30993   0.33840  -0.08893   0.0000000000
H          H       0.66030   0.70235   0.17820   0.0000000000
C          C       0.45576   0.46565  -0.21660   0.0000000000
C          C       0.52143   0.43288  -0.27798   0.0000000000
C          C       0.58760   0.46525  -0.16403   0.0000000000
C          C       0.61252   0.43262  -0.14270   0.0000000000
C          C       0.65108   0.43075  -0.30660   0.0000000000
C          C       0.67647   0.39914  -0.28086   0.0000000000
C          C       0.66385   0.36772  -0.09718   0.0000000000
C          C       0.62544   0.36899   0.06564   0.0000000000
C          C       0.60081   0.40114   0.04779   0.0000000000
H          H       0.53547   0.40797  -0.32155   0.0000000000
H          H       0.66117   0.45250  -0.44978   0.0000000000
H          H       0.70422   0.39914  -0.40070   0.0000000000
H          H       0.61516   0.34692   0.20269   0.0000000000
H          H       0.57404   0.40128   0.17910   0.0000000000
C          C       0.78166   0.22233   0.00385   0.0000000000
C          C       0.78767   0.25829  -0.13233   0.0000000000
C          C       0.75661   0.28549  -0.11730   0.0000000000
C          C       0.71834   0.27767   0.03447   0.0000000000
C          C       0.71233   0.24171   0.17065   0.0000000000
C          C       0.74339   0.21451   0.15561   0.0000000000
H          H       0.81486   0.26512  -0.24480   0.0000000000
H          H       0.76240   0.31110  -0.21924   0.0000000000
H          H       0.68514   0.23488   0.28313   0.0000000000
H          H       0.73760   0.18890   0.25756   0.0000000000
C          C       0.81335   0.19564  -0.01523   0.0000000000
N          N       0.80993   0.16160   0.12727   0.0000000000
H          H       0.16030   0.79765  -0.13986   0.0000000000
C          C       0.04424   0.96565   0.25499   0.0000000000
C          C       0.97857   0.93288   0.31637   0.0000000000
C          C       0.91240   0.96525   0.20243   0.0000000000
C          C       0.88748   0.93262   0.18109   0.0000000000
C          C       0.84892   0.93075   0.34498   0.0000000000
C          C       0.82353   0.89914   0.31922   0.0000000000
C          C       0.83615   0.86772   0.13554   0.0000000000
C          C       0.87456   0.86899  -0.02728   0.0000000000
C          C       0.89919   0.90114  -0.00941   0.0000000000
H          H       0.96454   0.90797   0.35994   0.0000000000
H          H       0.83883   0.95250   0.48817   0.0000000000
H          H       0.79578   0.89914   0.43906   0.0000000000
H          H       0.88484   0.84692  -0.16433   0.0000000000
H          H       0.92596   0.90128  -0.14071   0.0000000000
C          C       0.68665   0.69564   0.05356   0.0000000000
N          N       0.69007   0.66160  -0.08893   0.0000000000
H          H       0.33970   0.29765   0.17820   0.0000000000
C          C       0.54424   0.46565  -0.21660   0.0000000000
C          C       0.47857   0.43288  -0.27798   0.0000000000
C          C       0.41240   0.46525  -0.16403   0.0000000000
C          C       0.38748   0.43262  -0.14270   0.0000000000
C          C       0.34892   0.43075  -0.30660   0.0000000000
C          C       0.32353   0.39914  -0.28086   0.0000000000
C          C       0.33615   0.36772  -0.09718   0.0000000000
C          C       0.37456   0.36899   0.06564   0.0000000000
C          C       0.39919   0.40114   0.04779   0.0000000000
H          H       0.46454   0.40797  -0.32155   0.0000000000
H          H       0.33883   0.45250  -0.44978   0.0000000000
H          H       0.29578   0.39914  -0.40070   0.0000000000
H          H       0.38484   0.34692   0.20269   0.0000000000
H          H       0.42596   0.40128   0.17910   0.0000000000
C          C       0.21834   0.22233   0.00385   0.0000000000
C          C       0.21233   0.25829  -0.13233   0.0000000000
C          C       0.24339   0.28549  -0.11730   0.0000000000
C          C       0.28166   0.27767   0.03447   0.0000000000
C          C       0.28767   0.24171   0.17065   0.0000000000
C          C       0.25661   0.21451   0.15561   0.0000000000
H          H       0.18514   0.26512  -0.24480   0.0000000000
H          H       0.23760   0.31110  -0.21924   0.0000000000
H          H       0.31486   0.23488   0.28313   0.0000000000
H          H       0.26240   0.18890   0.25756   0.0000000000
C          C       0.18665   0.19564  -0.01523   0.0000000000
N          N       0.19007   0.16160   0.12727   0.0000000000
H          H       0.83970   0.79765  -0.13986   0.0000000000
C          C       0.95576   0.96565   0.25499   0.0000000000
C          C       0.02143   0.93288   0.31637   0.0000000000
C          C       0.08760   0.96525   0.20243   0.0000000000
C          C       0.11252   0.93262   0.18109   0.0000000000
C          C       0.15108   0.93075   0.34498   0.0000000000
C          C       0.17647   0.89914   0.31922   0.0000000000
C          C       0.16385   0.86772   0.13554   0.0000000000
C          C       0.12544   0.86899  -0.02728   0.0000000000
C          C       0.10081   0.90114  -0.00941   0.0000000000
H          H       0.03546   0.90797   0.35994   0.0000000000
H          H       0.16117   0.95250   0.48817   0.0000000000
H          H       0.20422   0.89914   0.43906   0.0000000000
H          H       0.11516   0.84692  -0.16433   0.0000000000
H          H       0.07404   0.90128  -0.14071   0.0000000000
C          C       0.31335   0.69564   0.05356   0.0000000000
N          N       0.30993   0.66160  -0.08893   0.0000000000
H          H       0.66030   0.29765   0.17820   0.0000000000
C          C       0.45576   0.53435  -0.21660   0.0000000000
C          C       0.52143   0.56712  -0.27798   0.0000000000
C          C       0.58760   0.53475  -0.16403   0.0000000000
C          C       0.61252   0.56738  -0.14270   0.0000000000
C          C       0.65108   0.56925  -0.30660   0.0000000000
C          C       0.67647   0.60086  -0.28086   0.0000000000
C          C       0.66385   0.63228  -0.09718   0.0000000000
C          C       0.62544   0.63101   0.06564   0.0000000000
C          C       0.60081   0.59886   0.04779   0.0000000000
H          H       0.53547   0.59203  -0.32155   0.0000000000
H          H       0.66117   0.54750  -0.44978   0.0000000000
H          H       0.70422   0.60086  -0.40070   0.0000000000
H          H       0.61516   0.65308   0.20269   0.0000000000
H          H       0.57404   0.59872   0.17910   0.0000000000
C          C       0.78166   0.77767   0.00385   0.0000000000
C          C       0.78767   0.74171  -0.13233   0.0000000000
C          C       0.75661   0.71451  -0.11730   0.0000000000
C          C       0.71834   0.72233   0.03447   0.0000000000
C          C       0.71233   0.75829   0.17065   0.0000000000
C          C       0.74339   0.78549   0.15561   0.0000000000
H          H       0.81486   0.73488  -0.24480   0.0000000000
H          H       0.76240   0.68890  -0.21924   0.0000000000
H          H       0.68514   0.76512   0.28313   0.0000000000
H          H       0.73760   0.81110   0.25756   0.0000000000
C          C       0.81335   0.80436  -0.01523   0.0000000000
N          N       0.80993   0.83840   0.12727   0.0000000000
H          H       0.16030   0.20235  -0.13986   0.0000000000
C          C       0.04424   0.03435   0.25499   0.0000000000
C          C       0.97857   0.06712   0.31637   0.0000000000
C          C       0.91240   0.03475   0.20243   0.0000000000
C          C       0.88748   0.06738   0.18109   0.0000000000
C          C       0.84892   0.06925   0.34498   0.0000000000
C          C       0.82353   0.10086   0.31922   0.0000000000
C          C       0.83615   0.13228   0.13554   0.0000000000
C          C       0.87456   0.13101  -0.02728   0.0000000000
C          C       0.89919   0.09886  -0.00941   0.0000000000
H          H       0.96454   0.09203   0.35994   0.0000000000
H          H       0.83883   0.04750   0.48817   0.0000000000
H          H       0.79578   0.10086   0.43906   0.0000000000
H          H       0.88484   0.15308  -0.16433   0.0000000000
H          H       0.92596   0.09872  -0.14071   0.0000000000
C          C       0.68665   0.30436   0.05356   0.0000000000
N          N       0.69007   0.33840  -0.08893   0.0000000000
H          H       0.33970   0.70235   0.17820   0.0000000000
C          C       0.39256   0.50000  -0.12248   0.0000000000
C          C       0.52206   0.50000  -0.21513   0.0000000000
H          H       0.36206   0.50000  -0.05911   0.0000000000
C          C       0.60744   0.50000  -0.12248   0.0000000000
C          C       0.47794   0.50000  -0.21513   0.0000000000
H          H       0.63794   0.50000  -0.05911   0.0000000000
C          C       0.10744   0.00000   0.16088   0.0000000000
C          C       0.97794   0.00000   0.25353   0.0000000000
H          H       0.13794   0.00000   0.09751   0.0000000000
C          C       0.89256   0.00000   0.16088   0.0000000000
C          C       0.02206   0.00000   0.25353   0.0000000000
H          H       0.86206   0.00000   0.09751   0.0000000000
