data_crystal

_cell_length_a    32.56980
_cell_length_b    35.85550
_cell_length_c    8.04000
_cell_angle_alpha 90.00000
_cell_angle_beta  90.00000
_cell_angle_gamma 90.00000

_space_group_name_Hall 'P 1'
_space_group_name_H-M_alt  'P 1'

loop_
_symmetry_equiv_pos_as_xyz
'x,y,z' 

loop_
_atom_site_label
_atom_site_type_symbol
_atom_site_fract_x
_atom_site_fract_y
_atom_site_fract_z
C          C       0.54424   0.53435  -0.10830 
C          C       0.47857   0.56712  -0.13899 
C          C       0.41240   0.53475  -0.08202 
C          C       0.38748   0.56738  -0.07135 
C          C       0.34892   0.56925  -0.15330 
C          C       0.32353   0.60086  -0.14043 
C          C       0.33615   0.63228  -0.04859 
C          C       0.37456   0.63101   0.03282 
C          C       0.39919   0.59886   0.02389 
H          H       0.46454   0.59203  -0.16078 
H          H       0.33883   0.54750  -0.22489 
H          H       0.29578   0.60086  -0.20035 
H          H       0.38484   0.65308   0.10135 
H          H       0.42596   0.59872   0.08955 
C          C       0.21834   0.77767   0.00193 
C          C       0.21233   0.74171  -0.06617 
C          C       0.24339   0.71451  -0.05865 
C          C       0.28166   0.72233   0.01724 
C          C       0.28767   0.75829   0.08532 
C          C       0.25661   0.78549   0.07780 
H          H       0.18514   0.73488  -0.12240 
H          H       0.23760   0.68890  -0.10962 
H          H       0.31486   0.76512   0.14157 
H          H       0.26240   0.81110   0.12878 
C          C       0.18665   0.80436  -0.00762 
N          N       0.19007   0.83840   0.06363 
H          H       0.83970   0.20235  -0.06993 
C          C       0.95576   0.03435   0.12750 
C          C       0.02143   0.06712   0.15818 
C          C       0.08760   0.03475   0.10122 
C          C       0.11252   0.06738   0.09055 
C          C       0.15108   0.06925   0.17249 
C          C       0.17647   0.10086   0.15961 
C          C       0.16385   0.13228   0.06777 
C          C       0.12544   0.13101  -0.01364 
C          C       0.10081   0.09886  -0.00470 
H          H       0.03546   0.09203   0.17997 
H          H       0.16117   0.04750   0.24408 
H          H       0.20422   0.10086   0.21953 
H          H       0.11516   0.15308  -0.08217 
H          H       0.07404   0.09872  -0.07036 
C          C       0.31335   0.30436   0.02678 
N          N       0.30993   0.33840  -0.04446 
H          H       0.66030   0.70235   0.08910 
C          C       0.45576   0.46565  -0.10830 
C          C       0.52143   0.43288  -0.13899 
C          C       0.58760   0.46525  -0.08202 
C          C       0.61252   0.43262  -0.07135 
C          C       0.65108   0.43075  -0.15330 
C          C       0.67647   0.39914  -0.14043 
C          C       0.66385   0.36772  -0.04859 
C          C       0.62544   0.36899   0.03282 
C          C       0.60081   0.40114   0.02389 
H          H       0.53547   0.40797  -0.16078 
H          H       0.66117   0.45250  -0.22489 
H          H       0.70422   0.39914  -0.20035 
H          H       0.61516   0.34692   0.10135 
H          H       0.57404   0.40128   0.08955 
C          C       0.78166   0.22233   0.00193 
C          C       0.78767   0.25829  -0.06617 
C          C       0.75661   0.28549  -0.05865 
C          C       0.71834   0.27767   0.01724 
C          C       0.71233   0.24171   0.08532 
C          C       0.74339   0.21451   0.07780 
H          H       0.81486   0.26512  -0.12240 
H          H       0.76240   0.31110  -0.10962 
H          H       0.68514   0.23488   0.14157 
H          H       0.73760   0.18890   0.12878 
C          C       0.81335   0.19564  -0.00762 
N          N       0.80993   0.16160   0.06363 
H          H       0.16030   0.79765  -0.06993 
C          C       0.04424   0.96565   0.12750 
C          C       0.97857   0.93288   0.15818 
C          C       0.91240   0.96525   0.10122 
C          C       0.88748   0.93262   0.09055 
C          C       0.84892   0.93075   0.17249 
C          C       0.82353   0.89914   0.15961 
C          C       0.83615   0.86772   0.06777 
C          C       0.87456   0.86899  -0.01364 
C          C       0.89919   0.90114  -0.00470 
H          H       0.96454   0.90797   0.17997 
H          H       0.83883   0.95250   0.24408 
H          H       0.79578   0.89914   0.21953 
H          H       0.88484   0.84692  -0.08217 
H          H       0.92596   0.90128  -0.07036 
C          C       0.68665   0.69564   0.02678 
N          N       0.69007   0.66160  -0.04446 
H          H       0.33970   0.29765   0.08910 
C          C       0.54424   0.46565  -0.10830 
C          C       0.47857   0.43288  -0.13899 
C          C       0.41240   0.46525  -0.08202 
C          C       0.38748   0.43262  -0.07135 
C          C       0.34892   0.43075  -0.15330 
C          C       0.32353   0.39914  -0.14043 
C          C       0.33615   0.36772  -0.04859 
C          C       0.37456   0.36899   0.03282 
C          C       0.39919   0.40114   0.02389 
H          H       0.46454   0.40797  -0.16078 
H          H       0.33883   0.45250  -0.22489 
H          H       0.29578   0.39914  -0.20035 
H          H       0.38484   0.34692   0.10135 
H          H       0.42596   0.40128   0.08955 
C          C       0.21834   0.22233   0.00193 
C          C       0.21233   0.25829  -0.06617 
C          C       0.24339   0.28549  -0.05865 
C          C       0.28166   0.27767   0.01724 
C          C       0.28767   0.24171   0.08532 
C          C       0.25661   0.21451   0.07780 
H          H       0.18514   0.26512  -0.12240 
H          H       0.23760   0.31110  -0.10962 
H          H       0.31486   0.23488   0.14157 
H          H       0.26240   0.18890   0.12878 
C          C       0.18665   0.19564  -0.00762 
N          N       0.19007   0.16160   0.06363 
H          H       0.83970   0.79765  -0.06993 
C          C       0.95576   0.96565   0.12750 
C          C       0.02143   0.93288   0.15818 
C          C       0.08760   0.96525   0.10122 
C          C       0.11252   0.93262   0.09055 
C          C       0.15108   0.93075   0.17249 
C          C       0.17647   0.89914   0.15961 
C          C       0.16385   0.86772   0.06777 
C          C       0.12544   0.86899  -0.01364 
C          C       0.10081   0.90114  -0.00470 
H          H       0.03546   0.90797   0.17997 
H          H       0.16117   0.95250   0.24408 
H          H       0.20422   0.89914   0.21953 
H          H       0.11516   0.84692  -0.08217 
H          H       0.07404   0.90128  -0.07036 
C          C       0.31335   0.69564   0.02678 
N          N       0.30993   0.66160  -0.04446 
H          H       0.66030   0.29765   0.08910 
C          C       0.45576   0.53435  -0.10830 
C          C       0.52143   0.56712  -0.13899 
C          C       0.58760   0.53475  -0.08202 
C          C       0.61252   0.56738  -0.07135 
C          C       0.65108   0.56925  -0.15330 
C          C       0.67647   0.60086  -0.14043 
C          C       0.66385   0.63228  -0.04859 
C          C       0.62544   0.63101   0.03282 
C          C       0.60081   0.59886   0.02389 
H          H       0.53547   0.59203  -0.16078 
H          H       0.66117   0.54750  -0.22489 
H          H       0.70422   0.60086  -0.20035 
H          H       0.61516   0.65308   0.10135 
H          H       0.57404   0.59872   0.08955 
C          C       0.78166   0.77767   0.00193 
C          C       0.78767   0.74171  -0.06617 
C          C       0.75661   0.71451  -0.05865 
C          C       0.71834   0.72233   0.01724 
C          C       0.71233   0.75829   0.08532 
C          C       0.74339   0.78549   0.07780 
H          H       0.81486   0.73488  -0.12240 
H          H       0.76240   0.68890  -0.10962 
H          H       0.68514   0.76512   0.14157 
H          H       0.73760   0.81110   0.12878 
C          C       0.81335   0.80436  -0.00762 
N          N       0.80993   0.83840   0.06363 
H          H       0.16030   0.20235  -0.06993 
C          C       0.04424   0.03435   0.12750 
C          C       0.97857   0.06712   0.15818 
C          C       0.91240   0.03475   0.10122 
C          C       0.88748   0.06738   0.09055 
C          C       0.84892   0.06925   0.17249 
C          C       0.82353   0.10086   0.15961 
C          C       0.83615   0.13228   0.06777 
C          C       0.87456   0.13101  -0.01364 
C          C       0.89919   0.09886  -0.00470 
H          H       0.96454   0.09203   0.17997 
H          H       0.83883   0.04750   0.24408 
H          H       0.79578   0.10086   0.21953 
H          H       0.88484   0.15308  -0.08217 
H          H       0.92596   0.09872  -0.07036 
C          C       0.68665   0.30436   0.02678 
N          N       0.69007   0.33840  -0.04446 
H          H       0.33970   0.70235   0.08910 
C          C       0.39256   0.50000  -0.06124 
C          C       0.52206   0.50000  -0.10756 
H          H       0.36206   0.50000  -0.02956 
C          C       0.60744   0.50000  -0.06124 
C          C       0.47794   0.50000  -0.10756 
H          H       0.63794   0.50000  -0.02956 
C          C       0.10744   0.00000   0.08044 
C          C       0.97794   0.00000   0.12676 
H          H       0.13794  -0.00000   0.04875 
C          C       0.89256   0.00000   0.08044 
C          C       0.02206   0.00000   0.12676 
H          H       0.86206  -0.00000   0.04875 
C          C       0.54424   0.53435   0.39170 
C          C       0.47857   0.56712   0.36101 
C          C       0.41240   0.53475   0.41798 
C          C       0.38748   0.56738   0.42865 
C          C       0.34892   0.56925   0.34670 
C          C       0.32353   0.60086   0.35957 
C          C       0.33615   0.63228   0.45141 
C          C       0.37456   0.63101   0.53282 
C          C       0.39919   0.59886   0.52389 
H          H       0.46454   0.59203   0.33922 
H          H       0.33883   0.54750   0.27511 
H          H       0.29578   0.60086   0.29965 
H          H       0.38484   0.65308   0.60135 
H          H       0.42596   0.59872   0.58955 
C          C       0.21834   0.77767   0.50192 
C          C       0.21233   0.74171   0.43383 
C          C       0.24339   0.71451   0.44135 
C          C       0.28166   0.72233   0.51724 
C          C       0.28767   0.75829   0.58532 
C          C       0.25661   0.78549   0.57781 
H          H       0.18514   0.73488   0.37760 
H          H       0.23760   0.68890   0.39038 
H          H       0.31486   0.76512   0.64157 
H          H       0.26240   0.81110   0.62878 
C          C       0.18665   0.80436   0.49239 
N          N       0.19007   0.83840   0.56363 
H          H       0.83970   0.20235   0.43007 
C          C       0.95576   0.03435   0.62750 
C          C       0.02143   0.06712   0.65819 
C          C       0.08760   0.03475   0.60121 
C          C       0.11252   0.06738   0.59055 
C          C       0.15108   0.06925   0.67249 
C          C       0.17647   0.10086   0.65961 
C          C       0.16385   0.13228   0.56777 
C          C       0.12544   0.13101   0.48636 
C          C       0.10081   0.09886   0.49530 
H          H       0.03546   0.09203   0.67997 
H          H       0.16117   0.04750   0.74408 
H          H       0.20422   0.10086   0.71953 
H          H       0.11516   0.15308   0.41784 
H          H       0.07404   0.09872   0.42964 
C          C       0.31335   0.30436   0.52678 
N          N       0.30993   0.33840   0.45554 
H          H       0.66030   0.70235   0.58910 
C          C       0.45576   0.46565   0.39170 
C          C       0.52143   0.43288   0.36101 
C          C       0.58760   0.46525   0.41798 
C          C       0.61252   0.43262   0.42865 
C          C       0.65108   0.43075   0.34670 
C          C       0.67647   0.39914   0.35957 
C          C       0.66385   0.36772   0.45141 
C          C       0.62544   0.36899   0.53282 
C          C       0.60081   0.40114   0.52389 
H          H       0.53547   0.40797   0.33922 
H          H       0.66117   0.45250   0.27511 
H          H       0.70422   0.39914   0.29965 
H          H       0.61516   0.34692   0.60135 
H          H       0.57404   0.40128   0.58955 
C          C       0.78166   0.22233   0.50192 
C          C       0.78767   0.25829   0.43383 
C          C       0.75661   0.28549   0.44135 
C          C       0.71834   0.27767   0.51724 
C          C       0.71233   0.24171   0.58532 
C          C       0.74339   0.21451   0.57781 
H          H       0.81486   0.26512   0.37760 
H          H       0.76240   0.31110   0.39038 
H          H       0.68514   0.23488   0.64157 
H          H       0.73760   0.18890   0.62878 
C          C       0.81335   0.19564   0.49239 
N          N       0.80993   0.16160   0.56363 
H          H       0.16030   0.79765   0.43007 
C          C       0.04424   0.96565   0.62750 
C          C       0.97857   0.93288   0.65819 
C          C       0.91240   0.96525   0.60121 
C          C       0.88748   0.93262   0.59055 
C          C       0.84892   0.93075   0.67249 
C          C       0.82353   0.89914   0.65961 
C          C       0.83615   0.86772   0.56777 
C          C       0.87456   0.86899   0.48636 
C          C       0.89919   0.90114   0.49530 
H          H       0.96454   0.90797   0.67997 
H          H       0.83883   0.95250   0.74408 
H          H       0.79578   0.89914   0.71953 
H          H       0.88484   0.84692   0.41784 
H          H       0.92596   0.90128   0.42964 
C          C       0.68665   0.69564   0.52678 
N          N       0.69007   0.66160   0.45554 
H          H       0.33970   0.29765   0.58910 
C          C       0.54424   0.46565   0.39170 
C          C       0.47857   0.43288   0.36101 
C          C       0.41240   0.46525   0.41798 
C          C       0.38748   0.43262   0.42865 
C          C       0.34892   0.43075   0.34670 
C          C       0.32353   0.39914   0.35957 
C          C       0.33615   0.36772   0.45141 
C          C       0.37456   0.36899   0.53282 
C          C       0.39919   0.40114   0.52389 
H          H       0.46454   0.40797   0.33922 
H          H       0.33883   0.45250   0.27511 
H          H       0.29578   0.39914   0.29965 
H          H       0.38484   0.34692   0.60135 
H          H       0.42596   0.40128   0.58955 
C          C       0.21834   0.22233   0.50192 
C          C       0.21233   0.25829   0.43383 
C          C       0.24339   0.28549   0.44135 
C          C       0.28166   0.27767   0.51724 
C          C       0.28767   0.24171   0.58532 
C          C       0.25661   0.21451   0.57781 
H          H       0.18514   0.26512   0.37760 
H          H       0.23760   0.31110   0.39038 
H          H       0.31486   0.23488   0.64157 
H          H       0.26240   0.18890   0.62878 
C          C       0.18665   0.19564   0.49239 
N          N       0.19007   0.16160   0.56363 
H          H       0.83970   0.79765   0.43007 
C          C       0.95576   0.96565   0.62750 
C          C       0.02143   0.93288   0.65819 
C          C       0.08760   0.96525   0.60121 
C          C       0.11252   0.93262   0.59055 
C          C       0.15108   0.93075   0.67249 
C          C       0.17647   0.89914   0.65961 
C          C       0.16385   0.86772   0.56777 
C          C       0.12544   0.86899   0.48636 
C          C       0.10081   0.90114   0.49530 
H          H       0.03546   0.90797   0.67997 
H          H       0.16117   0.95250   0.74408 
H          H       0.20422   0.89914   0.71953 
H          H       0.11516   0.84692   0.41784 
H          H       0.07404   0.90128   0.42964 
C          C       0.31335   0.69564   0.52678 
N          N       0.30993   0.66160   0.45554 
H          H       0.66030   0.29765   0.58910 
C          C       0.45576   0.53435   0.39170 
C          C       0.52143   0.56712   0.36101 
C          C       0.58760   0.53475   0.41798 
C          C       0.61252   0.56738   0.42865 
C          C       0.65108   0.56925   0.34670 
C          C       0.67647   0.60086   0.35957 
C          C       0.66385   0.63228   0.45141 
C          C       0.62544   0.63101   0.53282 
C          C       0.60081   0.59886   0.52389 
H          H       0.53547   0.59203   0.33922 
H          H       0.66117   0.54750   0.27511 
H          H       0.70422   0.60086   0.29965 
H          H       0.61516   0.65308   0.60135 
H          H       0.57404   0.59872   0.58955 
C          C       0.78166   0.77767   0.50192 
C          C       0.78767   0.74171   0.43383 
C          C       0.75661   0.71451   0.44135 
C          C       0.71834   0.72233   0.51724 
C          C       0.71233   0.75829   0.58532 
C          C       0.74339   0.78549   0.57781 
H          H       0.81486   0.73488   0.37760 
H          H       0.76240   0.68890   0.39038 
H          H       0.68514   0.76512   0.64157 
H          H       0.73760   0.81110   0.62878 
C          C       0.81335   0.80436   0.49239 
N          N       0.80993   0.83840   0.56363 
H          H       0.16030   0.20235   0.43007 
C          C       0.04424   0.03435   0.62750 
C          C       0.97857   0.06712   0.65819 
C          C       0.91240   0.03475   0.60121 
C          C       0.88748   0.06738   0.59055 
C          C       0.84892   0.06925   0.67249 
C          C       0.82353   0.10086   0.65961 
C          C       0.83615   0.13228   0.56777 
C          C       0.87456   0.13101   0.48636 
C          C       0.89919   0.09886   0.49530 
H          H       0.96454   0.09203   0.67997 
H          H       0.83883   0.04750   0.74408 
H          H       0.79578   0.10086   0.71953 
H          H       0.88484   0.15308   0.41784 
H          H       0.92596   0.09872   0.42964 
C          C       0.68665   0.30436   0.52678 
N          N       0.69007   0.33840   0.45554 
H          H       0.33970   0.70235   0.58910 
C          C       0.39256   0.50000   0.43876 
C          C       0.52206   0.50000   0.39243 
H          H       0.36206   0.50000   0.47045 
C          C       0.60744   0.50000   0.43876 
C          C       0.47794   0.50000   0.39243 
H          H       0.63794   0.50000   0.47045 
C          C       0.10744   0.00000   0.58044 
C          C       0.97794   0.00000   0.62677 
H          H       0.13794   0.00000   0.54876 
C          C       0.89256   0.00000   0.58044 
C          C       0.02206   0.00000   0.62677 
H          H       0.86206   0.00000   0.54876 
