data_crystal
 
_cell_length_a    42.26010
_cell_length_b    45.01260
_cell_length_c    3.90760
_cell_angle_alpha 90.00000
_cell_angle_beta  90.00000
_cell_angle_gamma 90.00000
 
_symmetry_space_group_name_Hall 'P 1'
_symmetry_space_group_name_H-M  'P 1'
 
loop_
_symmetry_equiv_pos_as_xyz
 'x,y,z' 
 
loop_
_atom_site_label
_atom_site_type_symbol
_atom_site_fract_x
_atom_site_fract_y
_atom_site_fract_z
_atom_site_charge
C          C       0.53413   0.52735  -0.07742   0.0000000000
C          C       0.48348   0.55337  -0.14333   0.0000000000
C          C       0.43244   0.52771  -0.02280   0.0000000000
C          C       0.41302   0.55364  -0.00669   0.0000000000
C          C       0.38301   0.55439  -0.17034   0.0000000000
C          C       0.36323   0.57947  -0.15161   0.0000000000
C          C       0.37304   0.60522   0.02316   0.0000000000
C          C       0.40286   0.60498   0.18630   0.0000000000
C          C       0.42201   0.57944   0.17672   0.0000000000
H          H       0.47274   0.57319  -0.19060   0.0000000000
H          H       0.37514   0.53658  -0.30904   0.0000000000
H          H       0.34166   0.57887  -0.27086   0.0000000000
H          H       0.41082   0.62310   0.31780   0.0000000000
H          H       0.44276   0.57997   0.30917   0.0000000000
C          C       0.03413   0.02735   0.14117   0.0000000000
C          C       0.98348   0.05337   0.20709   0.0000000000
C          C       0.93244   0.02771   0.08655   0.0000000000
C          C       0.91302   0.05364   0.07044   0.0000000000
C          C       0.92201   0.07944  -0.11297   0.0000000000
C          C       0.90286   0.10498  -0.12255   0.0000000000
C          C       0.87304   0.10522   0.04059   0.0000000000
C          C       0.86323   0.07947   0.21536   0.0000000000
C          C       0.88301   0.05439   0.23410   0.0000000000
H          H       0.97274   0.07319   0.25435   0.0000000000
H          H       0.94276   0.07997  -0.24542   0.0000000000
H          H       0.91082   0.12310  -0.25405   0.0000000000
H          H       0.84166   0.07887   0.33461   0.0000000000
H          H       0.87514   0.03658   0.37279   0.0000000000
C          C       0.16897   0.82262  -0.05769   0.0000000000
C          C       0.16398   0.79315  -0.17249   0.0000000000
C          C       0.18795   0.77158  -0.14646   0.0000000000
C          C       0.21761   0.77908  -0.00510   0.0000000000
C          C       0.22297   0.80837   0.10932   0.0000000000
C          C       0.19890   0.82984   0.08320   0.0000000000
C          C       0.23982   0.75915   0.02013   0.0000000000
C          C       0.26018   0.74085   0.04361   0.0000000000
C          C       0.28239   0.72092   0.06885   0.0000000000
C          C       0.31205   0.72842   0.21021   0.0000000000
C          C       0.33602   0.70685   0.23624   0.0000000000
C          C       0.33103   0.67738   0.12144   0.0000000000
C          C       0.30110   0.67016  -0.01945   0.0000000000
C          C       0.27703   0.69163  -0.04557   0.0000000000
H          H       0.14273   0.78702  -0.27669   0.0000000000
H          H       0.18346   0.75047  -0.23202   0.0000000000
H          H       0.24430   0.81440   0.21307   0.0000000000
H          H       0.20358   0.85086   0.16902   0.0000000000
H          H       0.31654   0.74953   0.29577   0.0000000000
H          H       0.35727   0.71298   0.34044   0.0000000000
H          H       0.29641   0.64914  -0.10528   0.0000000000
H          H       0.25570   0.68560  -0.14933   0.0000000000
C          C       0.14443   0.84368  -0.08604   0.0000000000
N          N       0.14727   0.87149   0.04149   0.0000000000
N          N       0.35273   0.62851   0.02226   0.0000000000
C          C       0.35557   0.65632   0.14979   0.0000000000
H          H       0.87614   0.16237  -0.20478   0.0000000000
H          H       0.62386   0.33763   0.26853   0.0000000000
C          C       0.46587   0.47265  -0.07742   0.0000000000
C          C       0.51651   0.44663  -0.14333   0.0000000000
C          C       0.56756   0.47229  -0.02280   0.0000000000
C          C       0.58697   0.44636  -0.00669   0.0000000000
C          C       0.61699   0.44561  -0.17034   0.0000000000
C          C       0.63677   0.42053  -0.15161   0.0000000000
C          C       0.62696   0.39478   0.02316   0.0000000000
C          C       0.59714   0.39502   0.18630   0.0000000000
C          C       0.57799   0.42056   0.17672   0.0000000000
H          H       0.52726   0.42681  -0.19060   0.0000000000
H          H       0.62486   0.46342  -0.30904   0.0000000000
H          H       0.65834   0.42113  -0.27086   0.0000000000
H          H       0.58918   0.37690   0.31780   0.0000000000
H          H       0.55724   0.42003   0.30917   0.0000000000
C          C       0.96587   0.97265   0.14117   0.0000000000
C          C       0.01652   0.94663   0.20709   0.0000000000
C          C       0.06756   0.97229   0.08655   0.0000000000
C          C       0.08697   0.94636   0.07044   0.0000000000
C          C       0.07799   0.92056  -0.11297   0.0000000000
C          C       0.09714   0.89502  -0.12255   0.0000000000
C          C       0.12696   0.89478   0.04059   0.0000000000
C          C       0.13677   0.92053   0.21536   0.0000000000
C          C       0.11699   0.94561   0.23410   0.0000000000
H          H       0.02726   0.92681   0.25435   0.0000000000
H          H       0.05724   0.92003  -0.24542   0.0000000000
H          H       0.08918   0.87690  -0.25405   0.0000000000
H          H       0.15834   0.92113   0.33461   0.0000000000
H          H       0.12486   0.96342   0.37279   0.0000000000
C          C       0.83103   0.17738  -0.05769   0.0000000000
C          C       0.83602   0.20685  -0.17249   0.0000000000
C          C       0.81205   0.22842  -0.14646   0.0000000000
C          C       0.78239   0.22092  -0.00510   0.0000000000
C          C       0.77703   0.19163   0.10932   0.0000000000
C          C       0.80110   0.17016   0.08320   0.0000000000
C          C       0.76018   0.24086   0.02013   0.0000000000
C          C       0.73982   0.25915   0.04361   0.0000000000
C          C       0.71761   0.27908   0.06885   0.0000000000
C          C       0.68795   0.27158   0.21021   0.0000000000
C          C       0.66398   0.29315   0.23624   0.0000000000
C          C       0.66897   0.32262   0.12144   0.0000000000
C          C       0.69890   0.32984  -0.01945   0.0000000000
C          C       0.72297   0.30837  -0.04557   0.0000000000
H          H       0.85727   0.21298  -0.27669   0.0000000000
H          H       0.81654   0.24953  -0.23202   0.0000000000
H          H       0.75570   0.18560   0.21307   0.0000000000
H          H       0.79641   0.14914   0.16902   0.0000000000
H          H       0.68346   0.25047   0.29577   0.0000000000
H          H       0.64273   0.28702   0.34044   0.0000000000
H          H       0.70358   0.35086  -0.10528   0.0000000000
H          H       0.74430   0.31440  -0.14933   0.0000000000
C          C       0.85557   0.15632  -0.08604   0.0000000000
N          N       0.85273   0.12851   0.04149   0.0000000000
N          N       0.64727   0.37149   0.02226   0.0000000000
C          C       0.64443   0.34368   0.14979   0.0000000000
H          H       0.12386   0.83763  -0.20478   0.0000000000
H          H       0.37614   0.66237   0.26853   0.0000000000
C          C       0.53413   0.47265  -0.07742   0.0000000000
C          C       0.48348   0.44663  -0.14333   0.0000000000
C          C       0.43244   0.47229  -0.02280   0.0000000000
C          C       0.41302   0.44636  -0.00669   0.0000000000
C          C       0.38301   0.44561  -0.17034   0.0000000000
C          C       0.36323   0.42053  -0.15161   0.0000000000
C          C       0.37304   0.39478   0.02316   0.0000000000
C          C       0.40286   0.39502   0.18630   0.0000000000
C          C       0.42201   0.42056   0.17672   0.0000000000
H          H       0.47274   0.42681  -0.19060   0.0000000000
H          H       0.37514   0.46342  -0.30904   0.0000000000
H          H       0.34166   0.42113  -0.27086   0.0000000000
H          H       0.41082   0.37690   0.31780   0.0000000000
H          H       0.44276   0.42003   0.30917   0.0000000000
C          C       0.03413   0.97265   0.14117   0.0000000000
C          C       0.98348   0.94663   0.20709   0.0000000000
C          C       0.93244   0.97229   0.08655   0.0000000000
C          C       0.91302   0.94636   0.07044   0.0000000000
C          C       0.92201   0.92056  -0.11297   0.0000000000
C          C       0.90286   0.89502  -0.12255   0.0000000000
C          C       0.87304   0.89478   0.04059   0.0000000000
C          C       0.86323   0.92053   0.21536   0.0000000000
C          C       0.88301   0.94561   0.23410   0.0000000000
H          H       0.97274   0.92681   0.25435   0.0000000000
H          H       0.94276   0.92003  -0.24542   0.0000000000
H          H       0.91082   0.87690  -0.25405   0.0000000000
H          H       0.84166   0.92113   0.33461   0.0000000000
H          H       0.87514   0.96342   0.37279   0.0000000000
C          C       0.16897   0.17738  -0.05769   0.0000000000
C          C       0.16398   0.20685  -0.17249   0.0000000000
C          C       0.18795   0.22842  -0.14646   0.0000000000
C          C       0.21761   0.22092  -0.00510   0.0000000000
C          C       0.22297   0.19163   0.10932   0.0000000000
C          C       0.19890   0.17016   0.08320   0.0000000000
C          C       0.23982   0.24086   0.02013   0.0000000000
C          C       0.26018   0.25915   0.04361   0.0000000000
C          C       0.28239   0.27908   0.06885   0.0000000000
C          C       0.31205   0.27158   0.21021   0.0000000000
C          C       0.33602   0.29315   0.23624   0.0000000000
C          C       0.33103   0.32262   0.12144   0.0000000000
C          C       0.30110   0.32984  -0.01945   0.0000000000
C          C       0.27703   0.30837  -0.04557   0.0000000000
H          H       0.14273   0.21298  -0.27669   0.0000000000
H          H       0.18346   0.24953  -0.23202   0.0000000000
H          H       0.24430   0.18560   0.21307   0.0000000000
H          H       0.20358   0.14914   0.16902   0.0000000000
H          H       0.31654   0.25047   0.29577   0.0000000000
H          H       0.35727   0.28702   0.34044   0.0000000000
H          H       0.29641   0.35086  -0.10528   0.0000000000
H          H       0.25570   0.31440  -0.14933   0.0000000000
C          C       0.14443   0.15632  -0.08604   0.0000000000
N          N       0.14727   0.12851   0.04149   0.0000000000
N          N       0.35273   0.37149   0.02226   0.0000000000
C          C       0.35557   0.34368   0.14979   0.0000000000
H          H       0.87614   0.83763  -0.20478   0.0000000000
H          H       0.62386   0.66237   0.26853   0.0000000000
C          C       0.46587   0.52735  -0.07742   0.0000000000
C          C       0.51651   0.55337  -0.14333   0.0000000000
C          C       0.56756   0.52771  -0.02280   0.0000000000
C          C       0.58697   0.55364  -0.00669   0.0000000000
C          C       0.61699   0.55439  -0.17034   0.0000000000
C          C       0.63677   0.57947  -0.15161   0.0000000000
C          C       0.62696   0.60522   0.02316   0.0000000000
C          C       0.59714   0.60498   0.18630   0.0000000000
C          C       0.57799   0.57944   0.17672   0.0000000000
H          H       0.52726   0.57319  -0.19060   0.0000000000
H          H       0.62486   0.53658  -0.30904   0.0000000000
H          H       0.65834   0.57887  -0.27086   0.0000000000
H          H       0.58918   0.62310   0.31780   0.0000000000
H          H       0.55724   0.57997   0.30917   0.0000000000
C          C       0.96587   0.02735   0.14117   0.0000000000
C          C       0.01652   0.05337   0.20709   0.0000000000
C          C       0.06756   0.02771   0.08655   0.0000000000
C          C       0.08697   0.05364   0.07044   0.0000000000
C          C       0.07799   0.07944  -0.11297   0.0000000000
C          C       0.09714   0.10498  -0.12255   0.0000000000
C          C       0.12696   0.10522   0.04059   0.0000000000
C          C       0.13677   0.07947   0.21536   0.0000000000
C          C       0.11699   0.05439   0.23410   0.0000000000
H          H       0.02726   0.07319   0.25435   0.0000000000
H          H       0.05724   0.07997  -0.24542   0.0000000000
H          H       0.08918   0.12310  -0.25405   0.0000000000
H          H       0.15834   0.07887   0.33461   0.0000000000
H          H       0.12486   0.03658   0.37279   0.0000000000
C          C       0.83103   0.82262  -0.05769   0.0000000000
C          C       0.83602   0.79315  -0.17249   0.0000000000
C          C       0.81205   0.77158  -0.14646   0.0000000000
C          C       0.78239   0.77908  -0.00510   0.0000000000
C          C       0.77703   0.80837   0.10932   0.0000000000
C          C       0.80110   0.82984   0.08320   0.0000000000
C          C       0.76018   0.75915   0.02013   0.0000000000
C          C       0.73982   0.74085   0.04361   0.0000000000
C          C       0.71761   0.72092   0.06885   0.0000000000
C          C       0.68795   0.72842   0.21021   0.0000000000
C          C       0.66398   0.70685   0.23624   0.0000000000
C          C       0.66897   0.67738   0.12144   0.0000000000
C          C       0.69890   0.67016  -0.01945   0.0000000000
C          C       0.72297   0.69163  -0.04557   0.0000000000
H          H       0.85727   0.78702  -0.27669   0.0000000000
H          H       0.81654   0.75047  -0.23202   0.0000000000
H          H       0.75570   0.81440   0.21307   0.0000000000
H          H       0.79641   0.85086   0.16902   0.0000000000
H          H       0.68346   0.74953   0.29577   0.0000000000
H          H       0.64273   0.71298   0.34044   0.0000000000
H          H       0.70358   0.64914  -0.10528   0.0000000000
H          H       0.74430   0.68560  -0.14933   0.0000000000
C          C       0.85557   0.84368  -0.08604   0.0000000000
N          N       0.85273   0.87149   0.04149   0.0000000000
N          N       0.64727   0.62851   0.02226   0.0000000000
C          C       0.64443   0.65632   0.14979   0.0000000000
H          H       0.12386   0.16237  -0.20478   0.0000000000
H          H       0.37614   0.33763   0.26853   0.0000000000
C          C       0.41730   0.50000   0.02396   0.0000000000
C          C       0.51701   0.50000  -0.07488   0.0000000000
H          H       0.39391   0.50000   0.09368   0.0000000000
C          C       0.58270   0.50000   0.02396   0.0000000000
C          C       0.48299   0.50000  -0.07488   0.0000000000
H          H       0.60609   0.50000   0.09368   0.0000000000
C          C       0.91730   0.00000   0.03979   0.0000000000
C          C       0.01701   0.00000   0.13863   0.0000000000
H          H       0.89391   0.00000  -0.02993   0.0000000000
C          C       0.08270   0.00000   0.03979   0.0000000000
C          C       0.98299   0.00000   0.13863   0.0000000000
H          H       0.10609   0.00000  -0.02993   0.0000000000
