data_crystal
 
_cell_length_a    51.64040
_cell_length_b    54.22420
_cell_length_c    3.84030
_cell_angle_alpha 90.00000
_cell_angle_beta  90.00000
_cell_angle_gamma 90.00000
 
_symmetry_space_group_name_Hall 'P 1'
_symmetry_space_group_name_H-M  'P 1'
 
loop_
_symmetry_equiv_pos_as_xyz
 'x,y,z' 
 
loop_
_atom_site_label
_atom_site_type_symbol
_atom_site_fract_x
_atom_site_fract_y
_atom_site_fract_z
_atom_site_charge
C          C       0.52795   0.52270   0.13452   0.0000000000
C          C       0.48649   0.54426   0.06545   0.0000000000
C          C       0.44470   0.52301   0.19046   0.0000000000
C          C       0.42869   0.54450   0.20254   0.0000000000
C          C       0.40400   0.54472   0.03876   0.0000000000
C          C       0.38771   0.56548   0.05147   0.0000000000
C          C       0.39576   0.58725   0.21922   0.0000000000
C          C       0.42023   0.58747   0.38327   0.0000000000
C          C       0.43599   0.56631   0.38058   0.0000000000
H          H       0.47773   0.56068   0.01551   0.0000000000
H          H       0.39754   0.52966  -0.09630   0.0000000000
H          H       0.37000   0.56466  -0.06774   0.0000000000
H          H       0.42673   0.60280   0.51035   0.0000000000
H          H       0.45300   0.56709   0.51414   0.0000000000
C          C       0.02795   0.02270  -0.08163   0.0000000000
C          C       0.98649   0.04425  -0.01257   0.0000000000
C          C       0.94469   0.02301  -0.13748   0.0000000000
C          C       0.92870   0.04451  -0.14966   0.0000000000
C          C       0.93603   0.06630  -0.32775   0.0000000000
C          C       0.92033   0.08750  -0.32989   0.0000000000
C          C       0.89589   0.08735  -0.16523   0.0000000000
C          C       0.88778   0.06557   0.00202   0.0000000000
C          C       0.90401   0.04477   0.01417   0.0000000000
H          H       0.97773   0.06068   0.03739   0.0000000000
H          H       0.95303   0.06706  -0.46160   0.0000000000
H          H       0.92688   0.10282  -0.45692   0.0000000000
H          H       0.87007   0.06480   0.12144   0.0000000000
H          H       0.89751   0.02971   0.14899   0.0000000000
C          C       0.13808   0.85229  -0.22806   0.0000000000
C          C       0.13367   0.82743  -0.32399   0.0000000000
C          C       0.15303   0.80943  -0.28153   0.0000000000
C          C       0.17737   0.81597  -0.14258   0.0000000000
C          C       0.18212   0.84070  -0.04844   0.0000000000
C          C       0.16267   0.85862  -0.09082   0.0000000000
C          C       0.19524   0.79932  -0.09954   0.0000000000
C          C       0.21165   0.78407  -0.05800   0.0000000000
C          C       0.22960   0.76754  -0.01193   0.0000000000
C          C       0.25402   0.77406   0.12483   0.0000000000
C          C       0.27333   0.75637   0.17174   0.0000000000
C          C       0.26897   0.73143   0.08464   0.0000000000
C          C       0.24453   0.72470  -0.05143   0.0000000000
C          C       0.22503   0.74259  -0.09952   0.0000000000
C          C       0.28699   0.71492   0.12771   0.0000000000
C          C       0.30356   0.69980   0.16641   0.0000000000
C          C       0.32165   0.68332   0.20654   0.0000000000
C          C       0.34595   0.69005   0.34465   0.0000000000
C          C       0.36553   0.67222   0.38441   0.0000000000
C          C       0.36137   0.64736   0.28661   0.0000000000
C          C       0.33681   0.64085   0.14993   0.0000000000
C          C       0.31715   0.65859   0.11022   0.0000000000
N          N       0.29503   0.76628   0.30286   0.0000000000
S          S       0.29270   0.79691   0.37149   0.0000000000
N          N       0.26197   0.79654   0.22329   0.0000000000
H          H       0.11621   0.82211  -0.42556   0.0000000000
H          H       0.14912   0.79160  -0.35298   0.0000000000
H          H       0.19965   0.84594   0.05257   0.0000000000
H          H       0.16675   0.87637  -0.01916   0.0000000000
H          H       0.24065   0.70676  -0.11769   0.0000000000
H          H       0.20754   0.73716  -0.19958   0.0000000000
H          H       0.34969   0.70788   0.41751   0.0000000000
H          H       0.38297   0.67767   0.48550   0.0000000000
H          H       0.33290   0.62310   0.07681   0.0000000000
H          H       0.29965   0.65322   0.00961   0.0000000000
C          C       0.11817   0.86983  -0.26969   0.0000000000
N          N       0.12066   0.89328  -0.15439   0.0000000000
N          N       0.37911   0.60655   0.20977   0.0000000000
C          C       0.38146   0.62998   0.32611   0.0000000000
H          H       0.89871   0.13546  -0.38718   0.0000000000
H          H       0.60167   0.36464   0.44307   0.0000000000
C          C       0.47205   0.47730   0.13452   0.0000000000
C          C       0.51351   0.45574   0.06545   0.0000000000
C          C       0.55530   0.47698   0.19046   0.0000000000
C          C       0.57131   0.45550   0.20254   0.0000000000
C          C       0.59600   0.45528   0.03876   0.0000000000
C          C       0.61229   0.43452   0.05147   0.0000000000
C          C       0.60424   0.41275   0.21922   0.0000000000
C          C       0.57977   0.41253   0.38327   0.0000000000
C          C       0.56401   0.43369   0.38058   0.0000000000
H          H       0.52227   0.43932   0.01551   0.0000000000
H          H       0.60246   0.47034  -0.09630   0.0000000000
H          H       0.63000   0.43534  -0.06774   0.0000000000
H          H       0.57327   0.39720   0.51035   0.0000000000
H          H       0.54701   0.43290   0.51414   0.0000000000
C          C       0.97205   0.97730  -0.08163   0.0000000000
C          C       0.01351   0.95575  -0.01257   0.0000000000
C          C       0.05531   0.97699  -0.13748   0.0000000000
C          C       0.07130   0.95549  -0.14966   0.0000000000
C          C       0.06397   0.93370  -0.32775   0.0000000000
C          C       0.07967   0.91250  -0.32989   0.0000000000
C          C       0.10411   0.91265  -0.16523   0.0000000000
C          C       0.11222   0.93443   0.00202   0.0000000000
C          C       0.09599   0.95523   0.01417   0.0000000000
H          H       0.02227   0.93932   0.03739   0.0000000000
H          H       0.04698   0.93294  -0.46160   0.0000000000
H          H       0.07312   0.89718  -0.45692   0.0000000000
H          H       0.12993   0.93520   0.12144   0.0000000000
H          H       0.10249   0.97029   0.14899   0.0000000000
C          C       0.86193   0.14771  -0.22806   0.0000000000
C          C       0.86633   0.17257  -0.32399   0.0000000000
C          C       0.84697   0.19057  -0.28153   0.0000000000
C          C       0.82263   0.18403  -0.14258   0.0000000000
C          C       0.81788   0.15930  -0.04844   0.0000000000
C          C       0.83733   0.14138  -0.09082   0.0000000000
C          C       0.80476   0.20068  -0.09954   0.0000000000
C          C       0.78835   0.21593  -0.05800   0.0000000000
C          C       0.77040   0.23246  -0.01193   0.0000000000
C          C       0.74598   0.22594   0.12483   0.0000000000
C          C       0.72667   0.24363   0.17174   0.0000000000
C          C       0.73103   0.26857   0.08464   0.0000000000
C          C       0.75547   0.27530  -0.05143   0.0000000000
C          C       0.77497   0.25741  -0.09952   0.0000000000
C          C       0.71302   0.28508   0.12771   0.0000000000
C          C       0.69644   0.30020   0.16641   0.0000000000
C          C       0.67835   0.31668   0.20654   0.0000000000
C          C       0.65405   0.30995   0.34465   0.0000000000
C          C       0.63447   0.32778   0.38441   0.0000000000
C          C       0.63863   0.35264   0.28661   0.0000000000
C          C       0.66319   0.35915   0.14993   0.0000000000
C          C       0.68285   0.34141   0.11022   0.0000000000
N          N       0.70497   0.23372   0.30286   0.0000000000
S          S       0.70730   0.20309   0.37149   0.0000000000
N          N       0.73803   0.20346   0.22329   0.0000000000
H          H       0.88379   0.17789  -0.42556   0.0000000000
H          H       0.85088   0.20840  -0.35298   0.0000000000
H          H       0.80035   0.15406   0.05257   0.0000000000
H          H       0.83325   0.12363  -0.01916   0.0000000000
H          H       0.75935   0.29324  -0.11769   0.0000000000
H          H       0.79246   0.26284  -0.19958   0.0000000000
H          H       0.65031   0.29212   0.41751   0.0000000000
H          H       0.61703   0.32233   0.48550   0.0000000000
H          H       0.66710   0.37690   0.07681   0.0000000000
H          H       0.70035   0.34678   0.00961   0.0000000000
C          C       0.88184   0.13017  -0.26969   0.0000000000
N          N       0.87934   0.10672  -0.15439   0.0000000000
N          N       0.62089   0.39345   0.20977   0.0000000000
C          C       0.61854   0.37002   0.32611   0.0000000000
H          H       0.10129   0.86454  -0.38718   0.0000000000
H          H       0.39833   0.63536   0.44307   0.0000000000
C          C       0.52795   0.47730   0.13452   0.0000000000
C          C       0.48649   0.45574   0.06545   0.0000000000
C          C       0.44470   0.47698   0.19046   0.0000000000
C          C       0.42869   0.45550   0.20254   0.0000000000
C          C       0.40400   0.45528   0.03876   0.0000000000
C          C       0.38771   0.43452   0.05147   0.0000000000
C          C       0.39576   0.41275   0.21922   0.0000000000
C          C       0.42023   0.41253   0.38327   0.0000000000
C          C       0.43599   0.43369   0.38058   0.0000000000
H          H       0.47773   0.43932   0.01551   0.0000000000
H          H       0.39754   0.47034  -0.09630   0.0000000000
H          H       0.37000   0.43534  -0.06774   0.0000000000
H          H       0.42673   0.39720   0.51035   0.0000000000
H          H       0.45300   0.43290   0.51414   0.0000000000
C          C       0.02795   0.97730  -0.08163   0.0000000000
C          C       0.98649   0.95575  -0.01257   0.0000000000
C          C       0.94469   0.97699  -0.13748   0.0000000000
C          C       0.92870   0.95549  -0.14966   0.0000000000
C          C       0.93603   0.93370  -0.32775   0.0000000000
C          C       0.92033   0.91250  -0.32989   0.0000000000
C          C       0.89589   0.91265  -0.16523   0.0000000000
C          C       0.88778   0.93443   0.00202   0.0000000000
C          C       0.90401   0.95523   0.01417   0.0000000000
H          H       0.97773   0.93932   0.03739   0.0000000000
H          H       0.95303   0.93294  -0.46160   0.0000000000
H          H       0.92688   0.89718  -0.45692   0.0000000000
H          H       0.87007   0.93520   0.12144   0.0000000000
H          H       0.89751   0.97029   0.14899   0.0000000000
C          C       0.13808   0.14771  -0.22806   0.0000000000
C          C       0.13367   0.17257  -0.32399   0.0000000000
C          C       0.15303   0.19057  -0.28153   0.0000000000
C          C       0.17737   0.18403  -0.14258   0.0000000000
C          C       0.18212   0.15930  -0.04844   0.0000000000
C          C       0.16267   0.14138  -0.09082   0.0000000000
C          C       0.19524   0.20068  -0.09954   0.0000000000
C          C       0.21165   0.21593  -0.05800   0.0000000000
C          C       0.22960   0.23246  -0.01193   0.0000000000
C          C       0.25402   0.22594   0.12483   0.0000000000
C          C       0.27333   0.24363   0.17174   0.0000000000
C          C       0.26897   0.26857   0.08464   0.0000000000
C          C       0.24453   0.27530  -0.05143   0.0000000000
C          C       0.22503   0.25741  -0.09952   0.0000000000
C          C       0.28699   0.28508   0.12771   0.0000000000
C          C       0.30356   0.30020   0.16641   0.0000000000
C          C       0.32165   0.31668   0.20654   0.0000000000
C          C       0.34595   0.30995   0.34465   0.0000000000
C          C       0.36553   0.32778   0.38441   0.0000000000
C          C       0.36137   0.35264   0.28661   0.0000000000
C          C       0.33681   0.35915   0.14993   0.0000000000
C          C       0.31715   0.34141   0.11022   0.0000000000
N          N       0.29503   0.23372   0.30286   0.0000000000
S          S       0.29270   0.20309   0.37149   0.0000000000
N          N       0.26197   0.20346   0.22329   0.0000000000
H          H       0.11621   0.17789  -0.42556   0.0000000000
H          H       0.14912   0.20840  -0.35298   0.0000000000
H          H       0.19965   0.15406   0.05257   0.0000000000
H          H       0.16675   0.12363  -0.01916   0.0000000000
H          H       0.24065   0.29324  -0.11769   0.0000000000
H          H       0.20754   0.26284  -0.19958   0.0000000000
H          H       0.34969   0.29212   0.41751   0.0000000000
H          H       0.38297   0.32233   0.48550   0.0000000000
H          H       0.33290   0.37690   0.07681   0.0000000000
H          H       0.29965   0.34678   0.00961   0.0000000000
C          C       0.11817   0.13017  -0.26969   0.0000000000
N          N       0.12066   0.10672  -0.15439   0.0000000000
N          N       0.37911   0.39345   0.20977   0.0000000000
C          C       0.38146   0.37002   0.32611   0.0000000000
H          H       0.89871   0.86454  -0.38718   0.0000000000
H          H       0.60167   0.63536   0.44307   0.0000000000
C          C       0.47205   0.52270   0.13452   0.0000000000
C          C       0.51351   0.54426   0.06545   0.0000000000
C          C       0.55530   0.52301   0.19046   0.0000000000
C          C       0.57131   0.54450   0.20254   0.0000000000
C          C       0.59600   0.54472   0.03876   0.0000000000
C          C       0.61229   0.56548   0.05147   0.0000000000
C          C       0.60424   0.58725   0.21922   0.0000000000
C          C       0.57977   0.58747   0.38327   0.0000000000
C          C       0.56401   0.56631   0.38058   0.0000000000
H          H       0.52227   0.56068   0.01551   0.0000000000
H          H       0.60246   0.52966  -0.09630   0.0000000000
H          H       0.63000   0.56466  -0.06774   0.0000000000
H          H       0.57327   0.60280   0.51035   0.0000000000
H          H       0.54701   0.56709   0.51414   0.0000000000
C          C       0.97205   0.02270  -0.08163   0.0000000000
C          C       0.01351   0.04425  -0.01257   0.0000000000
C          C       0.05531   0.02301  -0.13748   0.0000000000
C          C       0.07130   0.04451  -0.14966   0.0000000000
C          C       0.06397   0.06630  -0.32775   0.0000000000
C          C       0.07967   0.08750  -0.32989   0.0000000000
C          C       0.10411   0.08735  -0.16523   0.0000000000
C          C       0.11222   0.06557   0.00202   0.0000000000
C          C       0.09599   0.04477   0.01417   0.0000000000
H          H       0.02227   0.06068   0.03739   0.0000000000
H          H       0.04698   0.06706  -0.46160   0.0000000000
H          H       0.07312   0.10282  -0.45692   0.0000000000
H          H       0.12993   0.06480   0.12144   0.0000000000
H          H       0.10249   0.02971   0.14899   0.0000000000
C          C       0.86193   0.85229  -0.22806   0.0000000000
C          C       0.86633   0.82743  -0.32399   0.0000000000
C          C       0.84697   0.80943  -0.28153   0.0000000000
C          C       0.82263   0.81597  -0.14258   0.0000000000
C          C       0.81788   0.84070  -0.04844   0.0000000000
C          C       0.83733   0.85862  -0.09082   0.0000000000
C          C       0.80476   0.79932  -0.09954   0.0000000000
C          C       0.78835   0.78407  -0.05800   0.0000000000
C          C       0.77040   0.76754  -0.01193   0.0000000000
C          C       0.74598   0.77406   0.12483   0.0000000000
C          C       0.72667   0.75637   0.17174   0.0000000000
C          C       0.73103   0.73143   0.08464   0.0000000000
C          C       0.75547   0.72470  -0.05143   0.0000000000
C          C       0.77497   0.74259  -0.09952   0.0000000000
C          C       0.71302   0.71492   0.12771   0.0000000000
C          C       0.69644   0.69980   0.16641   0.0000000000
C          C       0.67835   0.68332   0.20654   0.0000000000
C          C       0.65405   0.69005   0.34465   0.0000000000
C          C       0.63447   0.67222   0.38441   0.0000000000
C          C       0.63863   0.64736   0.28661   0.0000000000
C          C       0.66319   0.64085   0.14993   0.0000000000
C          C       0.68285   0.65859   0.11022   0.0000000000
N          N       0.70497   0.76628   0.30286   0.0000000000
S          S       0.70730   0.79691   0.37149   0.0000000000
N          N       0.73803   0.79654   0.22329   0.0000000000
H          H       0.88379   0.82211  -0.42556   0.0000000000
H          H       0.85088   0.79160  -0.35298   0.0000000000
H          H       0.80035   0.84594   0.05257   0.0000000000
H          H       0.83325   0.87637  -0.01916   0.0000000000
H          H       0.75935   0.70676  -0.11769   0.0000000000
H          H       0.79246   0.73716  -0.19958   0.0000000000
H          H       0.65031   0.70788   0.41751   0.0000000000
H          H       0.61703   0.67767   0.48550   0.0000000000
H          H       0.66710   0.62310   0.07681   0.0000000000
H          H       0.70035   0.65322   0.00961   0.0000000000
C          C       0.88184   0.86983  -0.26969   0.0000000000
N          N       0.87934   0.89328  -0.15439   0.0000000000
N          N       0.62089   0.60655   0.20977   0.0000000000
C          C       0.61854   0.62998   0.32611   0.0000000000
H          H       0.10129   0.13546  -0.38718   0.0000000000
H          H       0.39833   0.36464   0.44307   0.0000000000
C          C       0.43239   0.50000   0.24087   0.0000000000
C          C       0.51393   0.50000   0.13787   0.0000000000
H          H       0.41331   0.50000   0.31489   0.0000000000
C          C       0.56761   0.50000   0.24087   0.0000000000
C          C       0.48607   0.50000   0.13787   0.0000000000
H          H       0.58669   0.50000   0.31489   0.0000000000
C          C       0.93237   0.00000  -0.18763   0.0000000000
C          C       0.01393   0.00000  -0.08500   0.0000000000
H          H       0.91329   0.00000  -0.26133   0.0000000000
C          C       0.06763   0.00000  -0.18763   0.0000000000
C          C       0.98607   0.00000  -0.08500   0.0000000000
H          H       0.08671   0.00000  -0.26133   0.0000000000
