data_crystal

_cell_length_a    48.87150
_cell_length_b    56.54200
_cell_length_c    7.83100
_cell_angle_alpha 90.16510
_cell_angle_beta  89.94330
_cell_angle_gamma 89.92030

_space_group_name_Hall 'P 1'
_space_group_name_H-M_alt  'P 1'

loop_
_symmetry_equiv_pos_as_xyz
'x,y,z' 

loop_
_atom_site_label
_atom_site_type_symbol
_atom_site_fract_x
_atom_site_fract_y
_atom_site_fract_z
C          C       0.27916   0.27202   0.02834 
C          C       0.23537   0.29264  -0.00760 
C          C       0.19116   0.27226   0.05191 
C          C       0.17451   0.29299   0.06251 
C          C       0.14842   0.29410  -0.01700 
C          C       0.13185   0.31444  -0.00588 
C          C       0.14102   0.33478   0.08100 
C          C       0.16679   0.33389   0.16210 
C          C       0.18277   0.31325   0.15558 
H          H       0.22611   0.30840  -0.03186 
H          H       0.14118   0.28007  -0.08620 
H          H       0.11312   0.31440  -0.06431 
H          H       0.17417   0.34806   0.22846 
H          H       0.20072   0.31328   0.22119 
C          C       0.77978   0.77156  -0.02533 
C          C       0.73583   0.79225   0.00376 
C          C       0.69185   0.77172  -0.05932 
C          C       0.67504   0.79235  -0.06774 
C          C       0.68293   0.81288  -0.15837 
C          C       0.66679   0.83348  -0.15884 
C          C       0.64129   0.83399  -0.07385 
C          C       0.63237   0.81331   0.00890 
C          C       0.64907   0.79304   0.01388 
H          H       0.72647   0.80805   0.02588 
H          H       0.70073   0.81315  -0.22602 
H          H       0.67383   0.84792  -0.22325 
H          H       0.61378   0.81297   0.06921 
H          H       0.64203   0.77876   0.08074 
C          C       0.89129   0.60581  -0.12609 
C          C       0.88472   0.58255  -0.17910 
C          C       0.90370   0.56398  -0.16327 
C          C       0.92985   0.56830  -0.09406 
C          C       0.93685   0.59146  -0.04282 
C          C       0.91774   0.60998  -0.05868 
C          C       0.94723   0.55102  -0.07582 
C          C       0.96295   0.53504  -0.05648 
C          C       0.98021   0.51780  -0.03188 
C          C       0.00570   0.52350   0.04241 
C          C       0.02562   0.50606   0.07519 
H          H       0.86588   0.57879  -0.22930 
H          H       0.89806   0.54737  -0.20224 
H          H       0.95576   0.59509   0.00724 
H          H       0.92341   0.62653  -0.01961 
H          H       0.98991   0.45929  -0.07430 
C          C       0.87152   0.62385  -0.14089 
N          N       0.87563   0.64601  -0.08023 
H          H       0.64676   0.88026  -0.16989 
C          C       0.60844   0.89335  -0.09231 
C          C       0.61443   0.91695  -0.13903 
C          C       0.59499   0.93507  -0.11784 
C          C       0.56898   0.92996  -0.04931 
C          C       0.56270   0.90654  -0.00185 
C          C       0.58225   0.88846  -0.02326 
C          C       0.55104   0.94681  -0.03129 
C          C       0.53478   0.96251  -0.01759 
C          C       0.51755   0.98004  -0.00675 
C          C       0.49080   0.97765   0.06162 
C          C       0.47366   0.99771   0.06722 
H          H       0.63312   0.92123  -0.18922 
H          H       0.60009   0.95194  -0.15329 
H          H       0.54396   0.90238   0.04852 
H          H       0.57707   0.87166   0.01252 
H          H       0.54565   0.00417  -0.11706 
C          C       0.62852   0.87570  -0.11506 
N          N       0.62458   0.85311  -0.06459 
H          H       0.85327   0.61985  -0.19757 
C          C       0.27928   0.22850   0.03000 
C          C       0.23561   0.20774  -0.00679 
C          C       0.19127   0.22815   0.05128 
C          C       0.17467   0.20742   0.05928 
C          C       0.14879   0.20649  -0.02300 
C          C       0.13231   0.18612  -0.01731 
C          C       0.14140   0.16555   0.06649 
C          C       0.16684   0.16627   0.15157 
C          C       0.18271   0.18699   0.15085 
H          H       0.22644   0.19196  -0.03177 
H          H       0.14166   0.22066  -0.09076 
H          H       0.11376   0.18629  -0.07784 
H          H       0.17403   0.15192   0.21647 
H          H       0.20041   0.18688   0.21938 
C          C       0.77989   0.72803  -0.02522 
C          C       0.73607   0.70733   0.00635 
C          C       0.69198   0.72765  -0.05738 
C          C       0.67530   0.70696  -0.06423 
C          C       0.68330   0.68631  -0.15412 
C          C       0.66723   0.66571  -0.15424 
C          C       0.64176   0.66527  -0.06901 
C          C       0.63278   0.68602   0.01373 
C          C       0.64936   0.70634   0.01770 
H          H       0.72680   0.69157   0.03011 
H          H       0.70111   0.68597  -0.22162 
H          H       0.67431   0.65122  -0.21862 
H          H       0.61422   0.68640   0.07449 
H          H       0.64225   0.72072   0.08379 
C          C       0.89103   0.89389  -0.08892 
C          C       0.88488   0.91749  -0.13503 
C          C       0.90424   0.93565  -0.11419 
C          C       0.93033   0.93056  -0.04685 
C          C       0.93677   0.90713  -0.00011 
C          C       0.91731   0.88903  -0.02109 
C          C       0.94827   0.94739  -0.02932 
C          C       0.96465   0.96296  -0.01604 
C          C       0.98213   0.98028  -0.00579 
C          C       0.00889   0.97755   0.06158 
C          C       0.02635   0.99736   0.06611 
H          H       0.86613   0.92174  -0.18445 
H          H       0.89902   0.95253  -0.14907 
H          H       0.95556   0.90298   0.04935 
H          H       0.92262   0.87223   0.01403 
H          H       0.95433   0.00478  -0.11512 
C          C       0.87108   0.87617  -0.11080 
N          N       0.87513   0.85365  -0.05844 
H          H       0.64722   0.61896  -0.16706 
H          H       0.85286   0.88060  -0.16633 
C          C       0.60892   0.60598  -0.08933 
C          C       0.61484   0.58236  -0.13694 
C          C       0.59534   0.56433  -0.11643 
C          C       0.56934   0.56958  -0.04770 
C          C       0.56313   0.59304   0.00052 
C          C       0.58274   0.61101  -0.02016 
C          C       0.55132   0.55284  -0.03008 
C          C       0.53496   0.53727  -0.01657 
C          C       0.51764   0.51986  -0.00611 
C          C       0.49093   0.52239   0.06283 
C          C       0.47370   0.50244   0.06777 
H          H       0.63352   0.57798  -0.18727 
H          H       0.60038   0.54743  -0.15252 
H          H       0.54439   0.59730   0.05090 
H          H       0.57761   0.62783   0.01625 
H          H       0.54558   0.49557  -0.11802 
C          C       0.62902   0.62356  -0.11150 
N          N       0.62511   0.64617  -0.05987 
C          C       0.17804   0.25020   0.07352 
C          C       0.26440   0.25024   0.02942 
H          H       0.15775   0.25020   0.10691 
C          C       0.32116   0.25036   0.08275 
C          C       0.23497   0.25022   0.02738 
H          H       0.34134   0.25043   0.11853 
O          O       0.04900   0.51471   0.14780 
C          C       0.07401   0.50359   0.19790 
H          H       0.08725   0.51688   0.25544 
H          H       0.07011   0.48987   0.29196 
H          H       0.08446   0.49599   0.08780 
O          O       0.47926   0.54248   0.12789 
C          C       0.48886   0.56627   0.14206 
H          H       0.47302   0.57685   0.20386 
H          H       0.50736   0.56709   0.21923 
H          H       0.49286   0.57369   0.01647 
O          O       0.47902   0.95763   0.12565 
C          C       0.48854   0.93380   0.13939 
H          H       0.47266   0.92331   0.20077 
H          H       0.49257   0.92632   0.01368 
H          H       0.50701   0.93293   0.21678 
O          O       0.02039   0.95739   0.12570 
C          C       0.01046   0.93373   0.14135 
H          H       0.02621   0.92308   0.20275 
H          H       0.99204   0.93324   0.21957 
H          H       0.00621   0.92615   0.01632 
C          C       0.72084   0.72798  -0.02834 
C          C       0.76463   0.70736   0.00760 
C          C       0.80884   0.72774  -0.05191 
C          C       0.82549   0.70701  -0.06251 
C          C       0.85158   0.70590   0.01700 
C          C       0.86815   0.68556   0.00588 
C          C       0.85898   0.66522  -0.08100 
C          C       0.83321   0.66611  -0.16210 
C          C       0.81723   0.68675  -0.15558 
H          H       0.77389   0.69160   0.03186 
H          H       0.85882   0.71993   0.08620 
H          H       0.88688   0.68560   0.06431 
H          H       0.82583   0.65194  -0.22846 
H          H       0.79928   0.68672  -0.22119 
C          C       0.22022   0.22844   0.02533 
C          C       0.26417   0.20775  -0.00376 
C          C       0.30815   0.22828   0.05932 
C          C       0.32496   0.20765   0.06774 
C          C       0.31707   0.18712   0.15837 
C          C       0.33322   0.16652   0.15884 
C          C       0.35871   0.16601   0.07385 
C          C       0.36763   0.18669  -0.00890 
C          C       0.35093   0.20696  -0.01388 
H          H       0.27353   0.19195  -0.02588 
H          H       0.29927   0.18685   0.22602 
H          H       0.32617   0.15208   0.22325 
H          H       0.38622   0.18703  -0.06921 
H          H       0.35797   0.22124  -0.08074 
C          C       0.10871   0.39419   0.12609 
C          C       0.11528   0.41745   0.17910 
C          C       0.09631   0.43602   0.16327 
C          C       0.07015   0.43170   0.09406 
C          C       0.06315   0.40854   0.04282 
C          C       0.08226   0.39002   0.05868 
C          C       0.05277   0.44898   0.07582 
C          C       0.03705   0.46496   0.05648 
C          C       0.01979   0.48220   0.03188 
C          C       0.99430   0.47650  -0.04241 
C          C       0.97438   0.49394  -0.07519 
H          H       0.13412   0.42121   0.22930 
H          H       0.10194   0.45263   0.20224 
H          H       0.04424   0.40491  -0.00724 
H          H       0.07659   0.37347   0.01961 
H          H       0.01009   0.54071   0.07430 
C          C       0.12848   0.37615   0.14089 
N          N       0.12437   0.35399   0.08023 
H          H       0.35324   0.11974   0.16989 
C          C       0.39156   0.10665   0.09231 
C          C       0.38557   0.08305   0.13903 
C          C       0.40501   0.06493   0.11784 
C          C       0.43102   0.07004   0.04931 
C          C       0.43730   0.09346   0.00185 
C          C       0.41775   0.11154   0.02326 
C          C       0.44896   0.05319   0.03129 
C          C       0.46522   0.03749   0.01759 
C          C       0.48245   0.01996   0.00675 
C          C       0.50921   0.02235  -0.06162 
C          C       0.52634   0.00229  -0.06722 
H          H       0.36688   0.07877   0.18922 
H          H       0.39991   0.04806   0.15329 
H          H       0.45604   0.09762  -0.04852 
H          H       0.42293   0.12834  -0.01252 
H          H       0.45435   0.99583   0.11706 
C          C       0.37148   0.12430   0.11506 
N          N       0.37542   0.14689   0.06459 
H          H       0.14673   0.38015   0.19757 
C          C       0.72072   0.77150  -0.03000 
C          C       0.76439   0.79226   0.00679 
C          C       0.80873   0.77185  -0.05128 
C          C       0.82534   0.79258  -0.05928 
C          C       0.85121   0.79351   0.02300 
C          C       0.86769   0.81388   0.01731 
C          C       0.85860   0.83445  -0.06649 
C          C       0.83316   0.83373  -0.15157 
C          C       0.81729   0.81301  -0.15085 
H          H       0.77356   0.80804   0.03177 
H          H       0.85834   0.77934   0.09076 
H          H       0.88624   0.81371   0.07784 
H          H       0.82597   0.84808  -0.21647 
H          H       0.79959   0.81312  -0.21938 
C          C       0.22011   0.27197   0.02522 
C          C       0.26393   0.29267  -0.00635 
C          C       0.30802   0.27235   0.05738 
C          C       0.32470   0.29304   0.06423 
C          C       0.31670   0.31369   0.15412 
C          C       0.33277   0.33429   0.15424 
C          C       0.35824   0.33473   0.06901 
C          C       0.36722   0.31398  -0.01373 
C          C       0.35064   0.29366  -0.01770 
H          H       0.27320   0.30843  -0.03011 
H          H       0.29889   0.31403   0.22162 
H          H       0.32569   0.34878   0.21862 
H          H       0.38578   0.31360  -0.07449 
H          H       0.35775   0.27928  -0.08379 
C          C       0.10897   0.10611   0.08892 
C          C       0.11512   0.08251   0.13503 
C          C       0.09576   0.06435   0.11419 
C          C       0.06967   0.06944   0.04685 
C          C       0.06323   0.09287   0.00011 
C          C       0.08269   0.11097   0.02109 
C          C       0.05173   0.05261   0.02932 
C          C       0.03535   0.03704   0.01604 
C          C       0.01787   0.01972   0.00579 
C          C       0.99111   0.02245  -0.06158 
C          C       0.97365   0.00264  -0.06611 
H          H       0.13387   0.07826   0.18445 
H          H       0.10098   0.04747   0.14907 
H          H       0.04444   0.09702  -0.04935 
H          H       0.07738   0.12777  -0.01403 
H          H       0.04567   0.99522   0.11512 
C          C       0.12892   0.12383   0.11080 
N          N       0.12488   0.14635   0.05844 
H          H       0.35278   0.38104   0.16706 
H          H       0.14714   0.11940   0.16633 
C          C       0.39108   0.39402   0.08933 
C          C       0.38516   0.41764   0.13694 
C          C       0.40466   0.43567   0.11643 
C          C       0.43066   0.43042   0.04770 
C          C       0.43687   0.40696  -0.00052 
C          C       0.41726   0.38899   0.02016 
C          C       0.44868   0.44716   0.03008 
C          C       0.46504   0.46273   0.01657 
C          C       0.48236   0.48014   0.00611 
C          C       0.50907   0.47761  -0.06283 
C          C       0.52630   0.49756  -0.06777 
H          H       0.36648   0.42202   0.18727 
H          H       0.39962   0.45257   0.15252 
H          H       0.45561   0.40270  -0.05090 
H          H       0.42239   0.37217  -0.01625 
H          H       0.45442   0.50443   0.11802 
C          C       0.37098   0.37644   0.11150 
N          N       0.37489   0.35384   0.05987 
C          C       0.82196   0.74980  -0.07352 
C          C       0.73560   0.74976  -0.02942 
H          H       0.84225   0.74980  -0.10691 
C          C       0.67884   0.74964  -0.08275 
C          C       0.76503   0.74978  -0.02738 
H          H       0.65866   0.74957  -0.11853 
O          O       0.95100   0.48529  -0.14780 
C          C       0.92599   0.49641  -0.19790 
H          H       0.91275   0.48312  -0.25544 
H          H       0.92989   0.51013  -0.29196 
H          H       0.91554   0.50401  -0.08780 
O          O       0.52074   0.45752  -0.12789 
C          C       0.51114   0.43373  -0.14206 
H          H       0.52698   0.42315  -0.20386 
H          H       0.49265   0.43291  -0.21923 
H          H       0.50714   0.42631  -0.01647 
O          O       0.52098   0.04237  -0.12565 
C          C       0.51146   0.06620  -0.13939 
H          H       0.52734   0.07669  -0.20077 
H          H       0.50743   0.07368  -0.01368 
H          H       0.49299   0.06707  -0.21678 
O          O       0.97961   0.04261  -0.12570 
C          C       0.98954   0.06627  -0.14135 
H          H       0.97379   0.07692  -0.20275 
H          H       0.00796   0.06676  -0.21957 
H          H       0.99379   0.07385  -0.01632 
C          C       0.27916   0.27202   0.52834 
C          C       0.23537   0.29264   0.49239 
C          C       0.19116   0.27226   0.55191 
C          C       0.17451   0.29299   0.56250 
C          C       0.14842   0.29410   0.48300 
C          C       0.13185   0.31444   0.49411 
C          C       0.14102   0.33478   0.58100 
C          C       0.16679   0.33389   0.66210 
C          C       0.18277   0.31325   0.65558 
H          H       0.22611   0.30840   0.46814 
H          H       0.14118   0.28007   0.41379 
H          H       0.11312   0.31440   0.43569 
H          H       0.17417   0.34806   0.72846 
H          H       0.20072   0.31328   0.72119 
C          C       0.77978   0.77156   0.47466 
C          C       0.73583   0.79225   0.50376 
C          C       0.69185   0.77172   0.44067 
C          C       0.67504   0.79235   0.43226 
C          C       0.68293   0.81288   0.34163 
C          C       0.66679   0.83348   0.34115 
C          C       0.64129   0.83399   0.42615 
C          C       0.63237   0.81331   0.50890 
C          C       0.64907   0.79304   0.51388 
H          H       0.72647   0.80805   0.52588 
H          H       0.70073   0.81315   0.27398 
H          H       0.67383   0.84792   0.27675 
H          H       0.61378   0.81297   0.56921 
H          H       0.64203   0.77876   0.58074 
C          C       0.89129   0.60581   0.37391 
C          C       0.88472   0.58255   0.32090 
C          C       0.90370   0.56398   0.33673 
C          C       0.92985   0.56830   0.40594 
C          C       0.93685   0.59146   0.45717 
C          C       0.91774   0.60998   0.44132 
C          C       0.94723   0.55102   0.42417 
C          C       0.96295   0.53504   0.44352 
C          C       0.98021   0.51780   0.46812 
C          C       0.00570   0.52350   0.54241 
C          C       0.02562   0.50606   0.57519 
H          H       0.86588   0.57879   0.27070 
H          H       0.89806   0.54737   0.29775 
H          H       0.95576   0.59509   0.50724 
H          H       0.92341   0.62653   0.48039 
H          H       0.98991   0.45929   0.42569 
C          C       0.87152   0.62385   0.35910 
N          N       0.87563   0.64601   0.41976 
H          H       0.64676   0.88026   0.33010 
C          C       0.60844   0.89335   0.40769 
C          C       0.61443   0.91695   0.36096 
C          C       0.59499   0.93507   0.38216 
C          C       0.56898   0.92996   0.45069 
C          C       0.56270   0.90654   0.49815 
C          C       0.58225   0.88846   0.47673 
C          C       0.55104   0.94681   0.46871 
C          C       0.53478   0.96251   0.48240 
C          C       0.51755   0.98004   0.49324 
C          C       0.49080   0.97765   0.56162 
C          C       0.47366   0.99771   0.56722 
H          H       0.63312   0.92123   0.31078 
H          H       0.60009   0.95194   0.34670 
H          H       0.54396   0.90238   0.54852 
H          H       0.57707   0.87166   0.51253 
H          H       0.54565   0.00417   0.38294 
C          C       0.62852   0.87570   0.38494 
N          N       0.62458   0.85311   0.43540 
H          H       0.85327   0.61985   0.30243 
C          C       0.27928   0.22850   0.53000 
C          C       0.23561   0.20774   0.49320 
C          C       0.19127   0.22815   0.55127 
C          C       0.17467   0.20742   0.55928 
C          C       0.14879   0.20649   0.47700 
C          C       0.13231   0.18612   0.48268 
C          C       0.14140   0.16555   0.56649 
C          C       0.16684   0.16627   0.65157 
C          C       0.18271   0.18699   0.65085 
H          H       0.22644   0.19196   0.46823 
H          H       0.14166   0.22066   0.40924 
H          H       0.11376   0.18629   0.42215 
H          H       0.17403   0.15192   0.71647 
H          H       0.20041   0.18688   0.71938 
C          C       0.77989   0.72803   0.47478 
C          C       0.73607   0.70733   0.50635 
C          C       0.69198   0.72765   0.44262 
C          C       0.67530   0.70696   0.43577 
C          C       0.68330   0.68631   0.34588 
C          C       0.66723   0.66571   0.34575 
C          C       0.64176   0.66527   0.43099 
C          C       0.63278   0.68602   0.51373 
C          C       0.64936   0.70634   0.51770 
H          H       0.72680   0.69157   0.53012 
H          H       0.70111   0.68597   0.27838 
H          H       0.67431   0.65122   0.28138 
H          H       0.61422   0.68640   0.57449 
H          H       0.64225   0.72072   0.58379 
C          C       0.89103   0.89389   0.41108 
C          C       0.88488   0.91749   0.36497 
C          C       0.90424   0.93565   0.38581 
C          C       0.93033   0.93056   0.45315 
C          C       0.93677   0.90713   0.49989 
C          C       0.91731   0.88903   0.47890 
C          C       0.94827   0.94739   0.47067 
C          C       0.96465   0.96296   0.48396 
C          C       0.98213   0.98028   0.49421 
C          C       0.00889   0.97755   0.56159 
C          C       0.02635   0.99736   0.56611 
H          H       0.86613   0.92174   0.31555 
H          H       0.89902   0.95253   0.35092 
H          H       0.95556   0.90298   0.54935 
H          H       0.92262   0.87223   0.51403 
H          H       0.95433   0.00478   0.38488 
C          C       0.87108   0.87617   0.38920 
N          N       0.87513   0.85365   0.44156 
H          H       0.64722   0.61896   0.33294 
H          H       0.85286   0.88060   0.33366 
C          C       0.60892   0.60598   0.41067 
C          C       0.61484   0.58236   0.36306 
C          C       0.59534   0.56433   0.38357 
C          C       0.56934   0.56958   0.45230 
C          C       0.56313   0.59304   0.50052 
C          C       0.58274   0.61101   0.47983 
C          C       0.55132   0.55284   0.46992 
C          C       0.53496   0.53727   0.48342 
C          C       0.51764   0.51986   0.49389 
C          C       0.49093   0.52239   0.56283 
C          C       0.47370   0.50244   0.56777 
H          H       0.63352   0.57798   0.31272 
H          H       0.60038   0.54743   0.34747 
H          H       0.54439   0.59730   0.55090 
H          H       0.57761   0.62783   0.51625 
H          H       0.54558   0.49557   0.38197 
C          C       0.62902   0.62356   0.38850 
N          N       0.62511   0.64617   0.44012 
C          C       0.17804   0.25020   0.57352 
C          C       0.26440   0.25024   0.52942 
H          H       0.15775   0.25020   0.60691 
C          C       0.32116   0.25036   0.58275 
C          C       0.23497   0.25022   0.52738 
H          H       0.34134   0.25043   0.61853 
O          O       0.04900   0.51471   0.64780 
C          C       0.07401   0.50359   0.69790 
H          H       0.08725   0.51688   0.75543 
H          H       0.07011   0.48987   0.79195 
H          H       0.08446   0.49599   0.58780 
O          O       0.47926   0.54248   0.62789 
C          C       0.48886   0.56627   0.64206 
H          H       0.47302   0.57685   0.70386 
H          H       0.50736   0.56709   0.71923 
H          H       0.49286   0.57369   0.51648 
O          O       0.47902   0.95763   0.62565 
C          C       0.48854   0.93380   0.63939 
H          H       0.47266   0.92331   0.70077 
H          H       0.49257   0.92632   0.51368 
H          H       0.50701   0.93293   0.71678 
O          O       0.02039   0.95739   0.62570 
C          C       0.01046   0.93373   0.64135 
H          H       0.02621   0.92308   0.70275 
H          H       0.99204   0.93324   0.71957 
H          H       0.00621   0.92615   0.51632 
C          C       0.72084   0.72798   0.47165 
C          C       0.76463   0.70736   0.50760 
C          C       0.80884   0.72774   0.44809 
C          C       0.82549   0.70701   0.43749 
C          C       0.85158   0.70590   0.51700 
C          C       0.86815   0.68556   0.50588 
C          C       0.85898   0.66522   0.41899 
C          C       0.83321   0.66611   0.33790 
C          C       0.81723   0.68675   0.34442 
H          H       0.77389   0.69160   0.53185 
H          H       0.85882   0.71993   0.58620 
H          H       0.88688   0.68560   0.56431 
H          H       0.82583   0.65194   0.27154 
H          H       0.79928   0.68672   0.27880 
C          C       0.22022   0.22844   0.52533 
C          C       0.26417   0.20775   0.49623 
C          C       0.30815   0.22828   0.55932 
C          C       0.32496   0.20765   0.56774 
C          C       0.31707   0.18712   0.65837 
C          C       0.33322   0.16652   0.65885 
C          C       0.35871   0.16601   0.57385 
C          C       0.36763   0.18669   0.49109 
C          C       0.35093   0.20696   0.48611 
H          H       0.27353   0.19195   0.47411 
H          H       0.29927   0.18685   0.72602 
H          H       0.32617   0.15208   0.72325 
H          H       0.38622   0.18703   0.43078 
H          H       0.35797   0.22124   0.41926 
C          C       0.10871   0.39419   0.62609 
C          C       0.11528   0.41745   0.67910 
C          C       0.09631   0.43602   0.66327 
C          C       0.07015   0.43170   0.59406 
C          C       0.06315   0.40854   0.54283 
C          C       0.08226   0.39002   0.55868 
C          C       0.05277   0.44898   0.57582 
C          C       0.03705   0.46496   0.55648 
C          C       0.01979   0.48220   0.53188 
C          C       0.99430   0.47650   0.45758 
C          C       0.97438   0.49394   0.42481 
H          H       0.13412   0.42121   0.72930 
H          H       0.10194   0.45263   0.70225 
H          H       0.04424   0.40491   0.49275 
H          H       0.07659   0.37347   0.51961 
H          H       0.01009   0.54071   0.57430 
C          C       0.12848   0.37615   0.64089 
N          N       0.12437   0.35399   0.58024 
H          H       0.35324   0.11974   0.66989 
C          C       0.39156   0.10665   0.59231 
C          C       0.38557   0.08305   0.63903 
C          C       0.40501   0.06493   0.61784 
C          C       0.43102   0.07004   0.54930 
C          C       0.43730   0.09346   0.50185 
C          C       0.41775   0.11154   0.52326 
C          C       0.44896   0.05319   0.53129 
C          C       0.46522   0.03749   0.51759 
C          C       0.48245   0.01996   0.50675 
C          C       0.50921   0.02235   0.43837 
C          C       0.52634   0.00229   0.43277 
H          H       0.36688   0.07877   0.68922 
H          H       0.39991   0.04806   0.65329 
H          H       0.45604   0.09762   0.45147 
H          H       0.42293   0.12834   0.48747 
H          H       0.45435   0.99583   0.61706 
C          C       0.37148   0.12430   0.61506 
N          N       0.37542   0.14689   0.56459 
H          H       0.14673   0.38015   0.69757 
C          C       0.72072   0.77150   0.46999 
C          C       0.76439   0.79226   0.50679 
C          C       0.80873   0.77185   0.44872 
C          C       0.82534   0.79258   0.44072 
C          C       0.85121   0.79351   0.52300 
C          C       0.86769   0.81388   0.51731 
C          C       0.85860   0.83445   0.43350 
C          C       0.83316   0.83373   0.34842 
C          C       0.81729   0.81301   0.34915 
H          H       0.77356   0.80804   0.53177 
H          H       0.85834   0.77934   0.59076 
H          H       0.88624   0.81371   0.57784 
H          H       0.82597   0.84808   0.28353 
H          H       0.79959   0.81312   0.28062 
C          C       0.22011   0.27197   0.52522 
C          C       0.26393   0.29267   0.49364 
C          C       0.30802   0.27235   0.55737 
C          C       0.32470   0.29304   0.56422 
C          C       0.31670   0.31369   0.65412 
C          C       0.33277   0.33429   0.65424 
C          C       0.35824   0.33473   0.56901 
C          C       0.36722   0.31398   0.48627 
C          C       0.35064   0.29366   0.48229 
H          H       0.27320   0.30843   0.46988 
H          H       0.29889   0.31403   0.72162 
H          H       0.32569   0.34878   0.71861 
H          H       0.38578   0.31360   0.42551 
H          H       0.35775   0.27928   0.41620 
C          C       0.10897   0.10611   0.58892 
C          C       0.11512   0.08251   0.63503 
C          C       0.09576   0.06435   0.61419 
C          C       0.06967   0.06944   0.54685 
C          C       0.06323   0.09287   0.50011 
C          C       0.08269   0.11097   0.52109 
C          C       0.05173   0.05261   0.52932 
C          C       0.03535   0.03704   0.51604 
C          C       0.01787   0.01972   0.50578 
C          C       0.99111   0.02245   0.43841 
C          C       0.97365   0.00264   0.43389 
H          H       0.13387   0.07826   0.68445 
H          H       0.10098   0.04747   0.64907 
H          H       0.04444   0.09702   0.45065 
H          H       0.07738   0.12777   0.48597 
H          H       0.04567   0.99522   0.61512 
C          C       0.12892   0.12383   0.61080 
N          N       0.12488   0.14635   0.55844 
H          H       0.35278   0.38104   0.66705 
H          H       0.14714   0.11940   0.66634 
C          C       0.39108   0.39402   0.58933 
C          C       0.38516   0.41764   0.63693 
C          C       0.40466   0.43567   0.61643 
C          C       0.43066   0.43042   0.54770 
C          C       0.43687   0.40696   0.49948 
C          C       0.41726   0.38899   0.52016 
C          C       0.44868   0.44716   0.53008 
C          C       0.46504   0.46273   0.51658 
C          C       0.48236   0.48014   0.50611 
C          C       0.50907   0.47761   0.43717 
C          C       0.52630   0.49756   0.43222 
H          H       0.36648   0.42202   0.68727 
H          H       0.39962   0.45257   0.65252 
H          H       0.45561   0.40270   0.44910 
H          H       0.42239   0.37217   0.48375 
H          H       0.45442   0.50443   0.61803 
C          C       0.37098   0.37644   0.61150 
N          N       0.37489   0.35384   0.55987 
C          C       0.82196   0.74980   0.42648 
C          C       0.73560   0.74976   0.47057 
H          H       0.84225   0.74980   0.39308 
C          C       0.67884   0.74964   0.41724 
C          C       0.76503   0.74978   0.47262 
H          H       0.65866   0.74957   0.38146 
O          O       0.95100   0.48529   0.35220 
C          C       0.92599   0.49641   0.30210 
H          H       0.91275   0.48312   0.24456 
H          H       0.92989   0.51013   0.20804 
H          H       0.91554   0.50401   0.41220 
O          O       0.52074   0.45752   0.37211 
C          C       0.51114   0.43373   0.35794 
H          H       0.52698   0.42315   0.29614 
H          H       0.49265   0.43291   0.28076 
H          H       0.50714   0.42631   0.48352 
O          O       0.52098   0.04237   0.37435 
C          C       0.51146   0.06620   0.36061 
H          H       0.52734   0.07669   0.29923 
H          H       0.50743   0.07368   0.48632 
H          H       0.49299   0.06707   0.28322 
O          O       0.97961   0.04261   0.37430 
C          C       0.98954   0.06627   0.35865 
H          H       0.97379   0.07692   0.29724 
H          H       0.00796   0.06676   0.28043 
H          H       0.99379   0.07385   0.48367 
