data_crystal

_cell_length_a    32.59910
_cell_length_b    35.99280
_cell_length_c    8.00720
_cell_angle_alpha 90.00000
_cell_angle_beta  90.00000
_cell_angle_gamma 90.00000

_space_group_name_Hall 'P 1'
_space_group_name_H-M_alt  'P 1'

loop_
_symmetry_equiv_pos_as_xyz
'x,y,z' 

loop_
_atom_site_label
_atom_site_type_symbol
_atom_site_fract_x
_atom_site_fract_y
_atom_site_fract_z
C          C       0.54421   0.53421  -0.12084 
C          C       0.47859   0.56685  -0.15172 
C          C       0.41247   0.53462  -0.09446 
C          C       0.38754   0.56711  -0.08396 
C          C       0.34896   0.56889  -0.16593 
C          C       0.32355   0.60034  -0.15316 
C          C       0.33613   0.63170  -0.06131 
C          C       0.37457   0.63056   0.01993 
C          C       0.39924   0.59857   0.01109 
H          H       0.46458   0.59167  -0.17366 
H          H       0.33888   0.54717  -0.23750 
H          H       0.29580   0.60027  -0.21310 
H          H       0.38489   0.65262   0.08817 
H          H       0.42602   0.59852   0.07672 
C          C       0.21886   0.77839  -0.00772 
C          C       0.21209   0.74250  -0.07580 
C          C       0.24251   0.71467  -0.06817 
F          F       0.17719   0.73403  -0.14803 
F          F       0.23356   0.68230  -0.13356 
C          C       0.18755   0.80557  -0.01775 
N          N       0.19016   0.83915   0.05727 
H          H       0.83838   0.20032  -0.08421 
C          C       0.45579   0.46579  -0.12084 
C          C       0.52141   0.43315  -0.15172 
C          C       0.58753   0.46538  -0.09446 
C          C       0.61246   0.43289  -0.08396 
C          C       0.65104   0.43111  -0.16593 
C          C       0.67645   0.39966  -0.15316 
C          C       0.66387   0.36830  -0.06131 
C          C       0.62543   0.36944   0.01993 
C          C       0.60077   0.40143   0.01109 
H          H       0.53542   0.40833  -0.17366 
H          H       0.66112   0.45283  -0.23750 
H          H       0.70420   0.39973  -0.21310 
H          H       0.61511   0.34738   0.08817 
H          H       0.57398   0.40148   0.07672 
C          C       0.78114   0.22161  -0.00772 
C          C       0.78792   0.25750  -0.07580 
C          C       0.75749   0.28533  -0.06817 
F          F       0.82282   0.26597  -0.14803 
F          F       0.76644   0.31770  -0.13356 
C          C       0.81245   0.19443  -0.01775 
N          N       0.80984   0.16085   0.05727 
H          H       0.16162   0.79968  -0.08421 
C          C       0.95579   0.03421   0.12084 
C          C       0.02141   0.06685   0.15172 
C          C       0.08753   0.03462   0.09446 
C          C       0.11246   0.06711   0.08396 
C          C       0.15104   0.06889   0.16593 
C          C       0.17645   0.10034   0.15316 
C          C       0.16387   0.13170   0.06131 
C          C       0.12543   0.13056  -0.01993 
C          C       0.10077   0.09857  -0.01109 
H          H       0.03542   0.09167   0.17366 
H          H       0.16112   0.04717   0.23750 
H          H       0.20420   0.10027   0.21310 
H          H       0.11511   0.15262  -0.08817 
H          H       0.07398   0.09852  -0.07672 
C          C       0.28114   0.27839   0.00772 
C          C       0.28791   0.24250   0.07580 
C          C       0.25749   0.21467   0.06817 
F          F       0.32282   0.23403   0.14803 
F          F       0.26644   0.18230   0.13356 
C          C       0.31245   0.30557   0.01775 
N          N       0.30984   0.33915  -0.05727 
H          H       0.66162   0.70032   0.08421 
C          C       0.04421   0.96578   0.12084 
C          C       0.97859   0.93315   0.15172 
C          C       0.91247   0.96538   0.09446 
C          C       0.88754   0.93289   0.08396 
C          C       0.84896   0.93111   0.16593 
C          C       0.82355   0.89966   0.15316 
C          C       0.83614   0.86830   0.06131 
C          C       0.87457   0.86944  -0.01993 
C          C       0.89924   0.90143  -0.01109 
H          H       0.96458   0.90833   0.17366 
H          H       0.83888   0.95283   0.23750 
H          H       0.79580   0.89973   0.21310 
H          H       0.88489   0.84738  -0.08817 
H          H       0.92602   0.90148  -0.07672 
C          C       0.71887   0.72161   0.00772 
C          C       0.71209   0.75750   0.07580 
C          C       0.74251   0.78533   0.06817 
F          F       0.67719   0.76597   0.14803 
F          F       0.73356   0.81770   0.13356 
C          C       0.68755   0.69443   0.01775 
N          N       0.69016   0.66085  -0.05727 
H          H       0.33838   0.29968   0.08421 
C          C       0.95579   0.96578   0.12084 
C          C       0.02141   0.93315   0.15172 
C          C       0.08753   0.96538   0.09446 
C          C       0.11246   0.93289   0.08396 
C          C       0.15104   0.93111   0.16593 
C          C       0.17645   0.89966   0.15316 
C          C       0.16387   0.86830   0.06131 
C          C       0.12543   0.86944  -0.01993 
C          C       0.10077   0.90143  -0.01109 
H          H       0.03542   0.90833   0.17366 
H          H       0.16112   0.95283   0.23750 
H          H       0.20420   0.89973   0.21310 
H          H       0.11511   0.84738  -0.08817 
H          H       0.07398   0.90148  -0.07672 
C          C       0.28114   0.72161   0.00772 
C          C       0.28791   0.75750   0.07580 
C          C       0.25749   0.78533   0.06817 
F          F       0.32282   0.76597   0.14803 
F          F       0.26644   0.81770   0.13356 
C          C       0.31245   0.69443   0.01775 
N          N       0.30984   0.66085  -0.05727 
H          H       0.66162   0.29968   0.08421 
C          C       0.04421   0.03421   0.12084 
C          C       0.97859   0.06685   0.15172 
C          C       0.91247   0.03462   0.09446 
C          C       0.88754   0.06711   0.08396 
C          C       0.84896   0.06889   0.16593 
C          C       0.82355   0.10034   0.15316 
C          C       0.83614   0.13170   0.06131 
C          C       0.87457   0.13056  -0.01993 
C          C       0.89924   0.09857  -0.01109 
H          H       0.96458   0.09167   0.17366 
H          H       0.83888   0.04717   0.23750 
H          H       0.79580   0.10027   0.21310 
H          H       0.88489   0.15262  -0.08817 
H          H       0.92602   0.09852  -0.07672 
C          C       0.71887   0.27839   0.00772 
C          C       0.71209   0.24250   0.07580 
C          C       0.74251   0.21467   0.06817 
F          F       0.67719   0.23403   0.14803 
F          F       0.73356   0.18230   0.13356 
C          C       0.68755   0.30557   0.01775 
N          N       0.69016   0.33915  -0.05727 
H          H       0.33838   0.70032   0.08421 
C          C       0.54421   0.46579  -0.12084 
C          C       0.47859   0.43315  -0.15172 
C          C       0.41247   0.46538  -0.09446 
C          C       0.38754   0.43289  -0.08396 
C          C       0.34896   0.43111  -0.16593 
C          C       0.32355   0.39966  -0.15316 
C          C       0.33613   0.36830  -0.06131 
C          C       0.37457   0.36944   0.01993 
C          C       0.39924   0.40143   0.01109 
H          H       0.46458   0.40833  -0.17366 
H          H       0.33888   0.45283  -0.23750 
H          H       0.29580   0.39973  -0.21310 
H          H       0.38489   0.34738   0.08817 
H          H       0.42602   0.40148   0.07672 
C          C       0.21886   0.22161  -0.00772 
C          C       0.21209   0.25750  -0.07580 
C          C       0.24251   0.28533  -0.06817 
F          F       0.17719   0.26597  -0.14803 
F          F       0.23356   0.31770  -0.13356 
C          C       0.18755   0.19443  -0.01775 
N          N       0.19016   0.16085   0.05727 
H          H       0.83838   0.79968  -0.08421 
C          C       0.45579   0.53421  -0.12084 
C          C       0.52141   0.56685  -0.15172 
C          C       0.58753   0.53462  -0.09446 
C          C       0.61246   0.56711  -0.08396 
C          C       0.65104   0.56889  -0.16593 
C          C       0.67645   0.60034  -0.15316 
C          C       0.66387   0.63170  -0.06131 
C          C       0.62543   0.63056   0.01993 
C          C       0.60077   0.59857   0.01109 
H          H       0.53542   0.59167  -0.17366 
H          H       0.66112   0.54717  -0.23750 
H          H       0.70420   0.60027  -0.21310 
H          H       0.61511   0.65262   0.08817 
H          H       0.57398   0.59852   0.07672 
C          C       0.78114   0.77839  -0.00772 
C          C       0.78792   0.74250  -0.07580 
C          C       0.75749   0.71467  -0.06817 
F          F       0.82282   0.73403  -0.14803 
F          F       0.76644   0.68230  -0.13356 
C          C       0.81245   0.80557  -0.01775 
N          N       0.80984   0.83915   0.05727 
H          H       0.16162   0.20032  -0.08421 
C          C       0.39267   0.50000  -0.07344 
C          C       0.52204   0.50000  -0.12008 
H          H       0.36221   0.50000  -0.04142 
C          C       0.60733   0.50000  -0.07344 
C          C       0.47796   0.50000  -0.12008 
H          H       0.63779   0.50000  -0.04142 
C          C       0.10733   0.00000   0.07344 
C          C       0.97796   0.00000   0.12008 
H          H       0.13779   0.00000   0.04142 
C          C       0.89267   0.00000   0.07344 
C          C       0.02204   0.00000   0.12008 
H          H       0.86221   0.00000   0.04142 
C          C       0.54421   0.53421   0.37916 
C          C       0.47859   0.56685   0.34827 
C          C       0.41247   0.53462   0.40553 
C          C       0.38754   0.56711   0.41603 
C          C       0.34896   0.56889   0.33407 
C          C       0.32355   0.60034   0.34684 
C          C       0.33613   0.63170   0.43869 
C          C       0.37457   0.63056   0.51994 
C          C       0.39924   0.59857   0.51109 
H          H       0.46458   0.59167   0.32634 
H          H       0.33888   0.54717   0.26249 
H          H       0.29580   0.60027   0.28690 
H          H       0.38489   0.65262   0.58818 
H          H       0.42602   0.59852   0.57671 
C          C       0.21886   0.77839   0.49228 
C          C       0.21209   0.74250   0.42420 
C          C       0.24251   0.71467   0.43182 
F          F       0.17719   0.73403   0.35196 
F          F       0.23356   0.68230   0.36644 
C          C       0.18755   0.80557   0.48225 
N          N       0.19016   0.83915   0.55726 
H          H       0.83838   0.20032   0.41579 
C          C       0.45579   0.46579   0.37916 
C          C       0.52141   0.43315   0.34827 
C          C       0.58753   0.46538   0.40553 
C          C       0.61246   0.43289   0.41603 
C          C       0.65104   0.43111   0.33407 
C          C       0.67645   0.39966   0.34684 
C          C       0.66387   0.36830   0.43869 
C          C       0.62543   0.36944   0.51994 
C          C       0.60077   0.40143   0.51109 
H          H       0.53542   0.40833   0.32634 
H          H       0.66112   0.45283   0.26249 
H          H       0.70420   0.39973   0.28690 
H          H       0.61511   0.34738   0.58818 
H          H       0.57398   0.40148   0.57671 
C          C       0.78114   0.22161   0.49228 
C          C       0.78792   0.25750   0.42420 
C          C       0.75749   0.28533   0.43182 
F          F       0.82282   0.26597   0.35196 
F          F       0.76644   0.31770   0.36644 
C          C       0.81245   0.19443   0.48225 
N          N       0.80984   0.16085   0.55726 
H          H       0.16162   0.79968   0.41579 
C          C       0.95579   0.03421   0.62084 
C          C       0.02141   0.06685   0.65172 
C          C       0.08753   0.03462   0.59447 
C          C       0.11246   0.06711   0.58396 
C          C       0.15104   0.06889   0.66593 
C          C       0.17645   0.10034   0.65316 
C          C       0.16387   0.13170   0.56131 
C          C       0.12543   0.13056   0.48006 
C          C       0.10077   0.09857   0.48891 
H          H       0.03542   0.09167   0.67366 
H          H       0.16112   0.04717   0.73750 
H          H       0.20420   0.10027   0.71310 
H          H       0.11511   0.15262   0.41182 
H          H       0.07398   0.09852   0.42328 
C          C       0.28114   0.27839   0.50772 
C          C       0.28791   0.24250   0.57580 
C          C       0.25749   0.21467   0.56817 
F          F       0.32282   0.23403   0.64804 
F          F       0.26644   0.18230   0.63356 
C          C       0.31245   0.30557   0.51775 
N          N       0.30984   0.33915   0.44273 
H          H       0.66162   0.70032   0.58421 
C          C       0.04421   0.96578   0.62084 
C          C       0.97859   0.93315   0.65172 
C          C       0.91247   0.96538   0.59447 
C          C       0.88754   0.93289   0.58396 
C          C       0.84896   0.93111   0.66593 
C          C       0.82355   0.89966   0.65316 
C          C       0.83614   0.86830   0.56131 
C          C       0.87457   0.86944   0.48006 
C          C       0.89924   0.90143   0.48891 
H          H       0.96458   0.90833   0.67366 
H          H       0.83888   0.95283   0.73750 
H          H       0.79580   0.89973   0.71310 
H          H       0.88489   0.84738   0.41182 
H          H       0.92602   0.90148   0.42328 
C          C       0.71887   0.72161   0.50772 
C          C       0.71209   0.75750   0.57580 
C          C       0.74251   0.78533   0.56817 
F          F       0.67719   0.76597   0.64804 
F          F       0.73356   0.81770   0.63356 
C          C       0.68755   0.69443   0.51775 
N          N       0.69016   0.66085   0.44273 
H          H       0.33838   0.29968   0.58421 
C          C       0.95579   0.96578   0.62084 
C          C       0.02141   0.93315   0.65172 
C          C       0.08753   0.96538   0.59447 
C          C       0.11246   0.93289   0.58396 
C          C       0.15104   0.93111   0.66593 
C          C       0.17645   0.89966   0.65316 
C          C       0.16387   0.86830   0.56131 
C          C       0.12543   0.86944   0.48006 
C          C       0.10077   0.90143   0.48891 
H          H       0.03542   0.90833   0.67366 
H          H       0.16112   0.95283   0.73750 
H          H       0.20420   0.89973   0.71310 
H          H       0.11511   0.84738   0.41182 
H          H       0.07398   0.90148   0.42328 
C          C       0.28114   0.72161   0.50772 
C          C       0.28791   0.75750   0.57580 
C          C       0.25749   0.78533   0.56817 
F          F       0.32282   0.76597   0.64804 
F          F       0.26644   0.81770   0.63356 
C          C       0.31245   0.69443   0.51775 
N          N       0.30984   0.66085   0.44273 
H          H       0.66162   0.29968   0.58421 
C          C       0.04421   0.03421   0.62084 
C          C       0.97859   0.06685   0.65172 
C          C       0.91247   0.03462   0.59447 
C          C       0.88754   0.06711   0.58396 
C          C       0.84896   0.06889   0.66593 
C          C       0.82355   0.10034   0.65316 
C          C       0.83614   0.13170   0.56131 
C          C       0.87457   0.13056   0.48006 
C          C       0.89924   0.09857   0.48891 
H          H       0.96458   0.09167   0.67366 
H          H       0.83888   0.04717   0.73750 
H          H       0.79580   0.10027   0.71310 
H          H       0.88489   0.15262   0.41182 
H          H       0.92602   0.09852   0.42328 
C          C       0.71887   0.27839   0.50772 
C          C       0.71209   0.24250   0.57580 
C          C       0.74251   0.21467   0.56817 
F          F       0.67719   0.23403   0.64804 
F          F       0.73356   0.18230   0.63356 
C          C       0.68755   0.30557   0.51775 
N          N       0.69016   0.33915   0.44273 
H          H       0.33838   0.70032   0.58421 
C          C       0.54421   0.46579   0.37916 
C          C       0.47859   0.43315   0.34827 
C          C       0.41247   0.46538   0.40553 
C          C       0.38754   0.43289   0.41603 
C          C       0.34896   0.43111   0.33407 
C          C       0.32355   0.39966   0.34684 
C          C       0.33613   0.36830   0.43869 
C          C       0.37457   0.36944   0.51994 
C          C       0.39924   0.40143   0.51109 
H          H       0.46458   0.40833   0.32634 
H          H       0.33888   0.45283   0.26249 
H          H       0.29580   0.39973   0.28690 
H          H       0.38489   0.34738   0.58818 
H          H       0.42602   0.40148   0.57671 
C          C       0.21886   0.22161   0.49228 
C          C       0.21209   0.25750   0.42420 
C          C       0.24251   0.28533   0.43182 
F          F       0.17719   0.26597   0.35196 
F          F       0.23356   0.31770   0.36644 
C          C       0.18755   0.19443   0.48225 
N          N       0.19016   0.16085   0.55726 
H          H       0.83838   0.79968   0.41579 
C          C       0.45579   0.53421   0.37916 
C          C       0.52141   0.56685   0.34827 
C          C       0.58753   0.53462   0.40553 
C          C       0.61246   0.56711   0.41603 
C          C       0.65104   0.56889   0.33407 
C          C       0.67645   0.60034   0.34684 
C          C       0.66387   0.63170   0.43869 
C          C       0.62543   0.63056   0.51994 
C          C       0.60077   0.59857   0.51109 
H          H       0.53542   0.59167   0.32634 
H          H       0.66112   0.54717   0.26249 
H          H       0.70420   0.60027   0.28690 
H          H       0.61511   0.65262   0.58818 
H          H       0.57398   0.59852   0.57671 
C          C       0.78114   0.77839   0.49228 
C          C       0.78792   0.74250   0.42420 
C          C       0.75749   0.71467   0.43182 
F          F       0.82282   0.73403   0.35196 
F          F       0.76644   0.68230   0.36644 
C          C       0.81245   0.80557   0.48225 
N          N       0.80984   0.83915   0.55726 
H          H       0.16162   0.20032   0.41579 
C          C       0.39267   0.50000   0.42656 
C          C       0.52204   0.50000   0.37993 
H          H       0.36221   0.50000   0.45858 
C          C       0.60733   0.50000   0.42656 
C          C       0.47796   0.50000   0.37993 
H          H       0.63779   0.50000   0.45858 
C          C       0.10733   0.00000   0.57344 
C          C       0.97796   0.00000   0.62007 
H          H       0.13779   0.00000   0.54142 
C          C       0.89267   0.00000   0.57344 
C          C       0.02204   0.00000   0.62007 
H          H       0.86221   0.00000   0.54142 
