data_crystal

_cell_length_a    25.00000
_cell_length_b    25.00000
_cell_length_c    10.00000
_cell_angle_alpha 90.00000
_cell_angle_beta  90.00000
_cell_angle_gamma 90.00000

_space_group_name_Hall 'P 1'
_space_group_name_H-M_alt  'P 1'

loop_
_symmetry_equiv_pos_as_xyz
'x,y,z' 

loop_
_atom_site_label
_atom_site_type_symbol
_atom_site_fract_x
_atom_site_fract_y
_atom_site_fract_z
C          C       0.78083   0.36249   0.25000 
C          C       0.78083   0.63751   0.25000 
C          C       0.21916   0.63751   0.25000 
C          C       0.21916   0.36249   0.25000 
C          C       0.63751   0.78084   0.25000 
C          C       0.63751   0.21916   0.25000 
C          C       0.36248   0.21916   0.25000 
C          C       0.36248   0.78084   0.25000 
C          C       0.72695   0.38006   0.25000 
C          C       0.72695   0.61994   0.25000 
C          C       0.27304   0.61994   0.25000 
C          C       0.27304   0.38006   0.25000 
C          C       0.61994   0.72695   0.25000 
C          C       0.61994   0.27305   0.25000 
C          C       0.38005   0.27305   0.25000 
C          C       0.38005   0.72695   0.25000 
C          C       0.71475   0.43531   0.25000 
C          C       0.71475   0.56469   0.25000 
C          C       0.28524   0.56469   0.25000 
C          C       0.28524   0.43531   0.25000 
C          C       0.56468   0.71476   0.25000 
C          C       0.56468   0.28524   0.25000 
C          C       0.43531   0.28524   0.25000 
C          C       0.43531   0.71476   0.25000 
C          C       0.75730   0.47216   0.25000 
C          C       0.75730   0.52784   0.25000 
C          C       0.24269   0.52784   0.25000 
C          C       0.24269   0.47216   0.25000 
C          C       0.52784   0.75730   0.25000 
C          C       0.52784   0.24270   0.25000 
C          C       0.47215   0.24270   0.25000 
C          C       0.47215   0.75730   0.25000 
C          C       0.81050   0.45473   0.25000 
C          C       0.81050   0.54527   0.25000 
C          C       0.18949   0.54527   0.25000 
C          C       0.18949   0.45473   0.25000 
C          C       0.54527   0.81050   0.25000 
C          C       0.54527   0.18950   0.25000 
C          C       0.45472   0.18950   0.25000 
C          C       0.45472   0.81050   0.25000 
C          C       0.82292   0.39992   0.25000 
C          C       0.82292   0.60008   0.25000 
C          C       0.17708   0.60008   0.25000 
C          C       0.17708   0.39992   0.25000 
C          C       0.60007   0.82292   0.25000 
C          C       0.60007   0.17708   0.25000 
C          C       0.39992   0.17708   0.25000 
C          C       0.39992   0.82292   0.25000 
C          C       0.68892   0.34481   0.25000 
C          C       0.68892   0.65519   0.25000 
C          C       0.31107   0.65519   0.25000 
C          C       0.31107   0.34481   0.25000 
C          C       0.65519   0.68893   0.25000 
C          C       0.65519   0.31107   0.25000 
C          C       0.34480   0.31107   0.25000 
C          C       0.34480   0.68893   0.25000 
H          H       0.79004   0.31783   0.25000 
H          H       0.79004   0.68217   0.25000 
H          H       0.20995   0.68217   0.25000 
H          H       0.20995   0.31783   0.25000 
H          H       0.68217   0.79005   0.25000 
H          H       0.68217   0.20995   0.25000 
H          H       0.31782   0.20995   0.25000 
H          H       0.31782   0.79005   0.25000 
H          H       0.67128   0.44907   0.25000 
H          H       0.67128   0.55093   0.25000 
H          H       0.32871   0.55093   0.25000 
H          H       0.32871   0.44907   0.25000 
H          H       0.55093   0.67128   0.25000 
H          H       0.55093   0.32872   0.25000 
H          H       0.44906   0.32872   0.25000 
H          H       0.44906   0.67128   0.25000 
H          H       0.86620   0.38557   0.25000 
H          H       0.86620   0.61443   0.25000 
H          H       0.13841   0.61341   0.25109 
H          H       0.13841   0.38659   0.24891 
H          H       0.61338   0.86161   0.25104 
H          H       0.61338   0.13839   0.24897 
H          H       0.38661   0.13839   0.25104 
H          H       0.38661   0.86161   0.24897 
C          C       0.50000   0.84771   0.25000 
C          C       0.50000   0.15229   0.25000 
C          C       0.14479   0.50000   0.25000 
C          C       0.85518   0.50000   0.25000 
C          C       0.48790   0.10149   0.14796 
C          C       0.48790   0.89851   0.35204 
O          O       0.47166   0.04521   0.17206 
O          O       0.47166   0.95479   0.32794 
C          C       0.51209   0.89851   0.14796 
C          C       0.51209   0.10149   0.35204 
O          O       0.52834   0.95479   0.17206 
O          O       0.52834   0.04521   0.32794 
C          C       0.09738   0.51340   0.14572 
C          C       0.09738   0.48660   0.35428 
O          O       0.04275   0.52979   0.17167 
O          O       0.04275   0.47021   0.32833 
C          C       0.90259   0.48677   0.14563 
C          C       0.90259   0.51323   0.35437 
O          O       0.95722   0.47033   0.17138 
O          O       0.95722   0.52967   0.32862 
B          B       0.50000  -0.00000   0.25000 
B          B       0.99998   0.50000   0.25000 
H          H       0.45769   0.11684   0.08136 
H          H       0.45769   0.88316   0.41864 
H          H       0.52666   0.09482   0.10415 
H          H       0.52666   0.90518   0.39585 
H          H       0.47333   0.90518   0.10415 
H          H       0.47333   0.09482   0.39585 
H          H       0.54230   0.88316   0.08136 
H          H       0.54230   0.11684   0.41864 
H          H       0.09071   0.47475   0.10197 
H          H       0.09071   0.52525   0.39803 
H          H       0.11430   0.54371   0.08148 
H          H       0.11430   0.45629   0.41853 
H          H       0.90927   0.52549   0.10221 
H          H       0.90927   0.47451   0.39779 
H          H       0.88559   0.45655   0.08132 
H          H       0.88559   0.54345   0.41868 
N          N      -0.35571   0.97400   0.59045 
C          C      -0.34753   1.03238   0.59013 
H          H      -0.39318   0.96661   0.62467 
C          C      -0.35002   0.94775   0.45929 
H          H      -0.32892   0.95717   0.65526 
H          H      -0.30732   1.04234   0.55566 
H          H      -0.35230   1.04705   0.69203 
H          H      -0.37699   1.05202   0.52630 
H          H      -0.38004   0.96272   0.38948 
H          H      -0.35592   0.90488   0.47247 
H          H      -0.31013   0.95441   0.41813 
N          N       0.00096  -0.37811  -0.00172 
C          C      -0.04708  -0.34639   0.03033 
H          H      -0.00782  -0.40227  -0.08053 
C          C       0.04896  -0.34631  -0.03357 
H          H       0.00974  -0.40235   0.07692 
H          H      -0.04092  -0.32328   0.12166 
H          H      -0.08054  -0.37353   0.04560 
H          H      -0.05709  -0.31943  -0.05183 
H          H       0.04275  -0.32307  -0.12468 
H          H       0.08243  -0.37340  -0.04915 
H          H       0.05896  -0.31945   0.04882 
C          C       0.78083   0.36249   0.75000 
C          C       0.78083   0.63751   0.75000 
C          C       0.21916   0.63751   0.75000 
C          C       0.21916   0.36249   0.75000 
C          C       0.63751   0.78084   0.75000 
C          C       0.63751   0.21916   0.75000 
C          C       0.36248   0.21916   0.75000 
C          C       0.36248   0.78084   0.75000 
C          C       0.72695   0.38006   0.75000 
C          C       0.72695   0.61994   0.75000 
C          C       0.27304   0.61994   0.75000 
C          C       0.27304   0.38006   0.75000 
C          C       0.61994   0.72695   0.75000 
C          C       0.61994   0.27305   0.75000 
C          C       0.38005   0.27305   0.75000 
C          C       0.38005   0.72695   0.75000 
C          C       0.71475   0.43531   0.75000 
C          C       0.71475   0.56469   0.75000 
C          C       0.28524   0.56469   0.75000 
C          C       0.28524   0.43531   0.75000 
C          C       0.56468   0.71476   0.75000 
C          C       0.56468   0.28524   0.75000 
C          C       0.43531   0.28524   0.75000 
C          C       0.43531   0.71476   0.75000 
C          C       0.75730   0.47216   0.75000 
C          C       0.75730   0.52784   0.75000 
C          C       0.24269   0.52784   0.75000 
C          C       0.24269   0.47216   0.75000 
C          C       0.52784   0.75730   0.75000 
C          C       0.52784   0.24270   0.75000 
C          C       0.47215   0.24270   0.75000 
C          C       0.47215   0.75730   0.75000 
C          C       0.81050   0.45473   0.75000 
C          C       0.81050   0.54527   0.75000 
C          C       0.18949   0.54527   0.75000 
C          C       0.18949   0.45473   0.75000 
C          C       0.54527   0.81050   0.75000 
C          C       0.54527   0.18950   0.75000 
C          C       0.45472   0.18950   0.75000 
C          C       0.45472   0.81050   0.75000 
C          C       0.82292   0.39992   0.75000 
C          C       0.82292   0.60008   0.75000 
C          C       0.17708   0.60008   0.75000 
C          C       0.17708   0.39992   0.75000 
C          C       0.60007   0.82292   0.75000 
C          C       0.60007   0.17708   0.75000 
C          C       0.39992   0.17708   0.75000 
C          C       0.39992   0.82292   0.75000 
C          C       0.68892   0.34481   0.75000 
C          C       0.68892   0.65519   0.75000 
C          C       0.31107   0.65519   0.75000 
C          C       0.31107   0.34481   0.75000 
C          C       0.65519   0.68893   0.75000 
C          C       0.65519   0.31107   0.75000 
C          C       0.34480   0.31107   0.75000 
C          C       0.34480   0.68893   0.75000 
H          H       0.79004   0.31783   0.75000 
H          H       0.79004   0.68217   0.75000 
H          H       0.20995   0.68217   0.75000 
H          H       0.20995   0.31783   0.75000 
H          H       0.68217   0.79005   0.75000 
H          H       0.68217   0.20995   0.75000 
H          H       0.31782   0.20995   0.75000 
H          H       0.31782   0.79005   0.75000 
H          H       0.67128   0.44907   0.75000 
H          H       0.67128   0.55093   0.75000 
H          H       0.32871   0.55093   0.75000 
H          H       0.32871   0.44907   0.75000 
H          H       0.55093   0.67128   0.75000 
H          H       0.55093   0.32872   0.75000 
H          H       0.44906   0.32872   0.75000 
H          H       0.44906   0.67128   0.75000 
H          H       0.86620   0.38557   0.75000 
H          H       0.86620   0.61443   0.75000 
H          H       0.13841   0.61341   0.75109 
H          H       0.13841   0.38659   0.74891 
H          H       0.61338   0.86161   0.75104 
H          H       0.61338   0.13839   0.74897 
H          H       0.38661   0.13839   0.75104 
H          H       0.38661   0.86161   0.74897 
C          C       0.50000   0.84771   0.75000 
C          C       0.50000   0.15229   0.75000 
C          C       0.14479   0.50000   0.75000 
C          C       0.85518   0.50000   0.75000 
C          C       0.48790   0.10149   0.64796 
C          C       0.48790   0.89851   0.85205 
O          O       0.47166   0.04521   0.67206 
O          O       0.47166   0.95479   0.82794 
C          C       0.51209   0.89851   0.64796 
C          C       0.51209   0.10149   0.85205 
O          O       0.52834   0.95479   0.67206 
O          O       0.52834   0.04521   0.82794 
C          C       0.09738   0.51340   0.64572 
C          C       0.09738   0.48660   0.85428 
O          O       0.04275   0.52979   0.67167 
O          O       0.04275   0.47021   0.82833 
C          C       0.90259   0.48677   0.64563 
C          C       0.90259   0.51323   0.85437 
O          O       0.95722   0.47033   0.67138 
O          O       0.95722   0.52967   0.82862 
B          B       0.50000   0.00000   0.75000 
B          B       0.99998   0.50000   0.75000 
H          H       0.45769   0.11684   0.58136 
H          H       0.45769   0.88316   0.91864 
H          H       0.52666   0.09482   0.60415 
H          H       0.52666   0.90518   0.89585 
H          H       0.47333   0.90518   0.60415 
H          H       0.47333   0.09482   0.89585 
H          H       0.54230   0.88316   0.58136 
H          H       0.54230   0.11684   0.91864 
H          H       0.09071   0.47475   0.60197 
H          H       0.09071   0.52525   0.89803 
H          H       0.11430   0.54371   0.58148 
H          H       0.11430   0.45629   0.91853 
H          H       0.90927   0.52549   0.60221 
H          H       0.90927   0.47451   0.89779 
H          H       0.88559   0.45655   0.58132 
H          H       0.88559   0.54345   0.91868 
N          N      -0.35571   0.97400   1.09046 
C          C      -0.34753   1.03238   1.09013 
H          H      -0.39318   0.96661   1.12467 
C          C      -0.35002   0.94775   0.95929 
H          H      -0.32892   0.95717   1.15526 
H          H      -0.30732   1.04234   1.05566 
H          H      -0.35230   1.04705   1.19203 
H          H      -0.37699   1.05202   1.02629 
H          H      -0.38004   0.96272   0.88948 
H          H      -0.35592   0.90488   0.97247 
H          H      -0.31013   0.95441   0.91813 
N          N       0.00096  -0.37811   0.49828 
C          C      -0.04708  -0.34639   0.53033 
H          H      -0.00782  -0.40227   0.41947 
C          C       0.04896  -0.34631   0.46643 
H          H       0.00974  -0.40235   0.57691 
H          H      -0.04092  -0.32328   0.62166 
H          H      -0.08054  -0.37353   0.54560 
H          H      -0.05709  -0.31943   0.44817 
H          H       0.04275  -0.32307   0.37533 
H          H       0.08243  -0.37340   0.45086 
H          H       0.05896  -0.31945   0.54882 
