data_crystal
 
_cell_length_a    36.14000
_cell_length_b    36.14000
_cell_length_c    8.04000
_cell_angle_alpha 90.00000
_cell_angle_beta  90.00000
_cell_angle_gamma 120.00000
 
_symmetry_space_group_name_Hall 'P 1'
_symmetry_space_group_name_H-M  'P 1'
 
loop_
_symmetry_equiv_pos_as_xyz
 'x,y,z' 
 
loop_
_atom_site_label
_atom_site_type_symbol
_atom_site_fract_x
_atom_site_fract_y
_atom_site_fract_z
_atom_site_charge
H          H      -0.15893   1.35730   0.47922   0.0000000000
H          H      -0.08773   1.38662   0.48579   0.0000000000
H          H      -0.00816   1.42501   0.48413   0.0000000000
H          H      -0.00503   1.54978   0.49379   0.0000000000
H          H      -0.08471   1.51137   0.49539   0.0000000000
H          H       0.06679   1.57885   0.49151   0.0000000000
H          H       0.12009   1.50585   0.48717   0.0000000000
H          H       0.25073   1.61866   0.49837   0.0000000000
H          H       0.13867   1.63627   0.49877   0.0000000000
H          H       0.26416   1.69098   0.50118   0.0000000000
H          H       0.15667   1.47742   0.34513   0.0000000000
H          H       0.19122   1.43179   0.34448   0.0000000000
H          H       0.29719   1.52770   0.65060   0.0000000000
H          H       0.26406   1.57423   0.64806   0.0000000000
H          H       0.18963   1.40208   0.65882   0.0000000000
H          H       0.14213   1.32238   0.66464   0.0000000000
H          H       0.23566   1.30845   0.35300   0.0000000000
H          H       0.28235   1.38842   0.34619   0.0000000000
H          H       0.31530   1.41622   0.63792   0.0000000000
H          H       0.39458   1.44889   0.63807   0.0000000000
H          H       0.40688   1.56102   0.36326   0.0000000000
H          H       0.32712   1.52712   0.35922   0.0000000000
H          H       0.09565   1.26441   0.51460   0.0000000000
H          H       0.07571   1.13378   0.49930   0.0000000000
H          H       0.20692   1.24411   0.49717   0.0000000000
H          H       0.45280   1.46404   0.49271   0.0000000000
H          H       0.58288   1.57563   0.49869   0.0000000000
H          H       0.47147   1.59488   0.49949   0.0000000000
H          H       0.02267   1.20617   0.51734   0.0000000000
H          H      -0.04885   1.17675   0.51202   0.0000000000
H          H      -0.12845   1.13827   0.51256   0.0000000000
H          H      -0.13137   1.01360   0.50469   0.0000000000
H          H      -0.05172   1.05208   0.50416   0.0000000000
H          H      -0.20300   0.98442   0.50413   0.0000000000
H          H       0.59752   1.64808   0.49246   0.0000000000
H          H       0.63661   1.71890   0.40986   0.0000000000
H          H       0.67802   1.79871   0.40772   0.0000000000
H          H       0.56201   1.80201   0.56795   0.0000000000
H          H       0.52066   1.72229   0.56990   0.0000000000
H          H       0.30219   1.76084   0.42865   0.0000000000
H          H       0.34356   1.84061   0.42788   0.0000000000
H          H       0.22745   1.84377   0.58667   0.0000000000
H          H       0.18605   1.76398   0.58805   0.0000000000
H          H       0.26635   1.91440   0.51211   0.0000000000
H          H       0.59969   1.87159   0.49295   0.0000000000
H          H       0.39232   1.96791   0.50760   0.0000000000
H          H       0.41062   2.09863   0.50265   0.0000000000
H          H       0.28068   1.98674   0.50065   0.0000000000
H          H       0.72519   1.92673   0.49641   0.0000000000
H          H       0.74320   2.05693   0.50956   0.0000000000
H          H       0.61278   1.94382   0.49631   0.0000000000
H          H       0.45692   2.00233   0.64071   0.0000000000
H          H       0.53660   2.03604   0.64270   0.0000000000
H          H       0.54824   2.14599   0.35792   0.0000000000
H          H       0.46883   2.11325   0.35805   0.0000000000
H          H       0.70626   2.08453   0.65508   0.0000000000
H          H       0.67186   2.13029   0.65653   0.0000000000
H          H       0.56632   2.03519   0.34645   0.0000000000
H          H       0.59949   1.98874   0.34680   0.0000000000
H          H       0.67487   2.16084   0.34518   0.0000000000
H          H       0.72248   2.24048   0.34179   0.0000000000
H          H       0.62755   2.25418   0.64518   0.0000000000
H          H       0.58072   2.17423   0.64985   0.0000000000
H          H       0.76835   2.29887   0.48607   0.0000000000
H          H       0.78754   2.42922   0.50104   0.0000000000
H          H       0.65668   2.31849   0.50772   0.0000000000
H          H       0.35255   2.11251   0.49765   0.0000000000
H          H       0.73044   2.44427   0.51243   0.0000000000
H          H       0.32410   2.15438   0.49123   0.0000000000
H          H       0.28635   2.19622   0.49124   0.0000000000
H          H       0.16101   2.07520   0.48712   0.0000000000
H          H       0.19872   2.03332   0.48744   0.0000000000
H          H       0.70216   2.48697   0.49800   0.0000000000
H          H       0.66450   2.52898   0.49721   0.0000000000
H          H       0.53936   2.40837   0.53526   0.0000000000
H          H       0.57705   2.36640   0.53560   0.0000000000
H          H       0.13273   2.11832   0.48941   0.0000000000
H          H       0.51099   2.45000   0.49308   0.0000000000
H          H       0.06721   0.06253   0.00565   0.0000000000
H          H       0.12099  -0.01004   0.00925   0.0000000000
H          H       0.25141   0.10308  -0.00378   0.0000000000
H          H       0.13901   0.12018  -0.00208   0.0000000000
H          H       0.26453   0.17528  -0.00662   0.0000000000
H          H       0.29793   0.01182  -0.15354   0.0000000000
H          H       0.26472   0.05822  -0.15324   0.0000000000
H          H       0.40736   0.04481   0.13874   0.0000000000
H          H       0.58354   0.06015   0.00160   0.0000000000
H          H       0.47199   0.07911   0.00630   0.0000000000
H          H       0.59792   0.13257   0.01154   0.0000000000
H          H       0.63664   0.20325   0.08852   0.0000000000
H          H       0.67800   0.28305   0.08960   0.0000000000
H          H       0.56203   0.28605  -0.07303   0.0000000000
H          H       0.52070   0.20626  -0.07349   0.0000000000
H          H       0.30250   0.24498   0.06598   0.0000000000
H          H       0.34381   0.32470   0.06748   0.0000000000
H          H       0.22741   0.32796  -0.08701   0.0000000000
H          H       0.18603   0.24816  -0.08865   0.0000000000
H          H       0.26674   0.39886  -0.00807   0.0000000000
H          H       0.59998   0.35602   0.00197   0.0000000000
H          H       0.39280   0.45209  -0.00111   0.0000000000
H          H       0.41140   0.58290  -0.00682   0.0000000000
H          H       0.28135   0.47127  -0.00117   0.0000000000
H          H       0.72550   0.41075  -0.00017   0.0000000000
H          H       0.74407   0.54116  -0.01259   0.0000000000
H          H       0.61343   0.42836  -0.00157   0.0000000000
H          H       0.45746   0.48608  -0.13731   0.0000000000
H          H       0.53724   0.52001  -0.14108   0.0000000000
H          H       0.54893   0.63087   0.13755   0.0000000000
H          H       0.46966   0.59814   0.13768   0.0000000000
H          H       0.70759   0.56961  -0.15434   0.0000000000
H          H       0.67317   0.61536  -0.15467   0.0000000000
H          H       0.56716   0.51955   0.15155   0.0000000000
H          H       0.60017   0.47288   0.14877   0.0000000000
H          H       0.67449   0.64506   0.16039   0.0000000000
H          H       0.72198   0.72478   0.16617   0.0000000000
H          H       0.62878   0.73864  -0.14779   0.0000000000
H          H       0.58208   0.65864  -0.15448   0.0000000000
H          H       0.76856   0.78265   0.01582   0.0000000000
H          H       0.78854   0.91330   0.00097   0.0000000000
H          H       0.65731   0.80297  -0.00205   0.0000000000
H          H       0.35330   0.59694  -0.00484   0.0000000000
H          H       0.73156   0.92878  -0.00873   0.0000000000
H          H       0.32494   0.63861   0.03528   0.0000000000
H          H       0.28729   0.68062   0.03580   0.0000000000
H          H       0.16214   0.56009  -0.00225   0.0000000000
H          H       0.19976   0.51806  -0.00320   0.0000000000
H          H       0.70330   0.97185  -0.01235   0.0000000000
H          H       0.66556   1.01370  -0.01204   0.0000000000
H          H       0.54021   0.89258  -0.00835   0.0000000000
H          H       0.57803   0.85079  -0.00837   0.0000000000
H          H       0.13384   0.60276   0.01154   0.0000000000
H          H       0.51167   0.93441  -0.00152   0.0000000000
H          H       0.15787   0.96231   0.15445   0.0000000000
H          H       0.19234   0.91662   0.15618   0.0000000000
H          H       0.18937   0.88611  -0.15470   0.0000000000
H          H       0.14174   0.80647  -0.15764   0.0000000000
H          H       0.23676   0.79285   0.14557   0.0000000000
H          H       0.28363   0.87282   0.14968   0.0000000000
H          H       0.31597   0.90091  -0.14240   0.0000000000
H          H       0.39539   0.93375  -0.14320   0.0000000000
H          H       0.32768   1.01104   0.14139   0.0000000000
H          H       0.09592   0.74821  -0.01232   0.0000000000
H          H       0.07665   0.61782   0.00155   0.0000000000
H          H       0.20755   0.72851   0.00811   0.0000000000
H          H       0.45354   0.94833   0.00165   0.0000000000
H          H       0.02319   0.68984  -0.01902   0.0000000000
H          H       0.84151   0.84083   0.01863   0.0000000000
H          H       0.91298   0.87021   0.01411   0.0000000000
H          H       0.99258   0.90867   0.01421   0.0000000000
H          H       0.99552   1.03337   0.00684   0.0000000000
H          H       0.91586   0.99488   0.00667   0.0000000000
H          H       0.95190   0.66051  -0.01296   0.0000000000
H          H       0.87232   0.62211  -0.01487   0.0000000000
H          H       0.86921   0.49735  -0.00429   0.0000000000
H          H       0.94888   0.53577  -0.00238   0.0000000000
H          H       0.79741   0.46824  -0.00696   0.0000000000
C          C       1.83186  -1.13383   0.01344   0.0000000000
C          C       1.90702  -1.07086   0.01055   0.0000000000
C          C       1.93047  -1.09370   0.01270   0.0000000000
C          C       1.97607  -1.07173   0.01273   0.0000000000
C          C       2.00144  -1.02561   0.01063   0.0000000000
C          C       1.97800  -1.00273   0.00862   0.0000000000
C          C       1.93237  -1.02471   0.00855   0.0000000000
C          C       2.07672  -0.96293   0.00737   0.0000000000
C          C       2.12383  -0.94725   0.00485   0.0000000000
C          C       2.14244  -0.97417   0.00712   0.0000000000
C          C       2.18869  -0.95719   0.00224   0.0000000000
C          C       2.21561  -0.91068  -0.00264   0.0000000000
C          C       2.19879  -0.88235  -0.00411   0.0000000000
C          C       2.15291  -0.90174  -0.00063   0.0000000000
C          C       2.22934  -0.83511  -0.00857   0.0000000000
C          C       2.20787  -0.98517   0.00049   0.0000000000
C          C       2.18857  -1.02643   0.08445   0.0000000000
C          C       2.20801  -1.05231   0.08541   0.0000000000
C          C       2.24782  -1.03956   0.00129   0.0000000000
C          C       2.26715  -0.99908  -0.08350   0.0000000000
C          C       2.24814  -0.97288  -0.08368   0.0000000000
C          C       2.24021  -1.11411  -0.00154   0.0000000000
C          C       2.31508  -1.04695   0.00012   0.0000000000
C          C       2.19967  -1.13445  -0.08620   0.0000000000
C          C       2.17287  -1.17960  -0.08843   0.0000000000
C          C       2.18445  -1.20829  -0.00569   0.0000000000
C          C       2.22590  -1.18715   0.07709   0.0000000000
C          C       2.25243  -1.14191   0.07981   0.0000000000
C          C       2.33596  -1.06756  -0.07748   0.0000000000
C          C       2.38117  -1.04869  -0.07857   0.0000000000
C          C       2.40941  -1.00749  -0.00112   0.0000000000
C          C       2.38778  -0.98676   0.07427   0.0000000000
C          C       2.34252  -1.00595   0.07583   0.0000000000
C          C       2.15559  -1.25536  -0.00311   0.0000000000
C          C       2.45656  -0.98873   0.00339   0.0000000000
C          C       2.10913  -1.27429  -0.00871   0.0000000000
C          C       2.08011  -1.31935  -0.00658   0.0000000000
C          C       2.09883  -1.34641   0.00047   0.0000000000
C          C       2.14423  -1.33060   0.00611   0.0000000000
C          C       2.17177  -1.28520   0.00524   0.0000000000
C          C       2.47581  -1.01593   0.00159   0.0000000000
C          C       2.52090  -0.99948   0.00038   0.0000000000
C          C       2.54775  -0.95363   0.00277   0.0000000000
C          C       2.53157  -0.92433   0.00588   0.0000000000
C          C       2.48609  -0.94260   0.00675   0.0000000000
C          C       2.03293  -1.33540  -0.01162   0.0000000000
C          C       1.95782  -1.39844  -0.00792   0.0000000000
C          C       1.93440  -1.37558  -0.01130   0.0000000000
C          C       1.88879  -1.39751  -0.01235   0.0000000000
C          C       1.86339  -1.44363  -0.01009   0.0000000000
C          C       1.88679  -1.46654  -0.00649   0.0000000000
C          C       1.93243  -1.44459  -0.00539   0.0000000000
C          C       1.78802  -1.50621  -0.00896   0.0000000000
C          C       2.56287  -0.87725   0.00721   0.0000000000
C          C       2.24038  -0.76072  -0.01207   0.0000000000
C          C       2.57487  -0.80241   0.00626   0.0000000000
C          C       2.61954  -0.77908   0.05180   0.0000000000
C          C       2.64320  -0.73347   0.05276   0.0000000000
C          C       2.62389  -0.70818   0.00892   0.0000000000
C          C       2.57917  -0.73156  -0.03620   0.0000000000
C          C       2.55552  -0.77715  -0.03697   0.0000000000
C          C       2.28523  -0.73738   0.03114   0.0000000000
C          C       2.30889  -0.69181   0.03253   0.0000000000
C          C       2.28945  -0.66646  -0.00824   0.0000000000
C          C       2.24463  -0.68973  -0.05202   0.0000000000
C          C       2.22096  -0.73536  -0.05344   0.0000000000
C          C       2.30176  -0.59146  -0.00552   0.0000000000
C          C       2.33323  -0.54440  -0.00370   0.0000000000
C          C       2.63514  -0.63368   0.00424   0.0000000000
C          C       2.66584  -0.58646   0.00006   0.0000000000
C          C       2.37871  -0.52620  -0.00334   0.0000000000
C          C       2.40831  -0.48006  -0.00318   0.0000000000
C          C       2.38911  -0.45282  -0.00416   0.0000000000
C          C       2.34404  -0.46920  -0.00157   0.0000000000
C          C       2.31713  -0.51504  -0.00209   0.0000000000
C          C       2.71171  -0.56723  -0.00234   0.0000000000
C          C       2.74093  -0.52175  -0.00759   0.0000000000
C          C       2.72248  -0.49469  -0.01067   0.0000000000
C          C       2.67626  -0.51150  -0.00627   0.0000000000
C          C       2.64921  -0.55799  -0.00208   0.0000000000
C          C       2.45548  -0.46123  -0.00026   0.0000000000
C          C       2.65721  -0.48339  -0.00329   0.0000000000
C          C       2.47710  -0.48214  -0.07438   0.0000000000
C          C       2.52239  -0.46291  -0.07634   0.0000000000
C          C       2.54986  -0.42171  -0.00202   0.0000000000
C          C       2.52900  -0.40084   0.07367   0.0000000000
C          C       2.48381  -0.41967   0.07447   0.0000000000
C          C       2.67675  -0.44183  -0.08511   0.0000000000
C          C       2.65732  -0.41594  -0.08539   0.0000000000
C          C       2.61730  -0.42895  -0.00243   0.0000000000
C          C       2.59790  -0.46957   0.08130   0.0000000000
C          C       2.61686  -0.49583   0.08043   0.0000000000
C          C       2.62465  -0.35453   0.00171   0.0000000000
C          C       2.66459  -0.33429   0.09026   0.0000000000
C          C       2.69126  -0.28914   0.09427   0.0000000000
C          C       2.68013  -0.26039   0.00937   0.0000000000
C          C       2.63923  -0.28143  -0.07740   0.0000000000
C          C       2.61285  -0.32668  -0.08180   0.0000000000
C          C       2.70910  -0.21338   0.00773   0.0000000000
C          C       2.75555  -0.19469   0.01257   0.0000000000
C          C       2.78474  -0.14967   0.00966   0.0000000000
C          C       2.76620  -0.12244   0.00293   0.0000000000
C          C       2.72085  -0.13802  -0.00150   0.0000000000
C          C       2.69309  -0.18339   0.00013   0.0000000000
C          C       2.32809  -0.43806   0.00146   0.0000000000
C          C       2.70588  -0.10611  -0.00729   0.0000000000
C          C       2.26562  -0.42569   0.01550   0.0000000000
C          C       2.64389  -0.09272  -0.01009   0.0000000000
C          C       2.28892  -0.37950   0.02691   0.0000000000
C          C       2.26747  -0.35538   0.02744   0.0000000000
C          C       2.22147  -0.37561   0.01685   0.0000000000
C          C       2.19816  -0.42182   0.00663   0.0000000000
C          C       2.21961  -0.44596   0.00619   0.0000000000
C          C       2.66721  -0.04642  -0.01154   0.0000000000
C          C       2.64566  -0.02237  -0.01146   0.0000000000
C          C       2.59956  -0.04282  -0.00995   0.0000000000
C          C       2.57628  -0.08911  -0.00938   0.0000000000
C          C       2.59782  -0.11314  -0.00947   0.0000000000
C          C       2.15945  -0.36233   0.01203   0.0000000000
C          C       2.53692  -0.03057  -0.00322   0.0000000000
C          C      -0.16871   1.38251   0.48682   0.0000000000
C          C      -0.09365   1.44557   0.49045   0.0000000000
C          C      -0.07022   1.42271   0.48731   0.0000000000
C          C      -0.02463   1.44463   0.48642   0.0000000000
C          C       0.00078   1.49075   0.48862   0.0000000000
C          C      -0.02261   1.51367   0.49177   0.0000000000
C          C      -0.06825   1.49173   0.49269   0.0000000000
C          C       0.07616   1.55328   0.48998   0.0000000000
C          C       0.12324   1.56876   0.49173   0.0000000000
C          C       0.14168   1.54169   0.48903   0.0000000000
C          C       0.18790   1.55851   0.49350   0.0000000000
C          C       0.21495   1.60499   0.49773   0.0000000000
C          C       0.19831   1.63346   0.49968   0.0000000000
C          C       0.15245   1.61424   0.49695   0.0000000000
C          C       0.22900   1.68068   0.50390   0.0000000000
C          C       0.20700   1.53044   0.49629   0.0000000000
C          C       0.18752   1.48890   0.41432   0.0000000000
C          C       0.20701   1.46306   0.41391   0.0000000000
C          C       0.24702   1.47609   0.49697   0.0000000000
C          C       0.26641   1.51673   0.58056   0.0000000000
C          C       0.24739   1.54293   0.57976   0.0000000000
C          C       0.23964   1.40164   0.50131   0.0000000000
C          C       0.31443   1.46881   0.49811   0.0000000000
C          C       0.19960   1.38141   0.58922   0.0000000000
C          C       0.17292   1.33626   0.59322   0.0000000000
C          C       0.18411   1.30748   0.50890   0.0000000000
C          C       0.22512   1.32852   0.42287   0.0000000000
C          C       0.25151   1.37377   0.41843   0.0000000000
C          C       0.33525   1.44793   0.57400   0.0000000000
C          C       0.38044   1.46671   0.57486   0.0000000000
C          C       0.40879   1.50826   0.50009   0.0000000000
C          C       0.38723   1.52923   0.42609   0.0000000000
C          C       0.34194   1.51002   0.42394   0.0000000000
C          C       0.15512   1.26046   0.50691   0.0000000000
C          C       0.45594   1.52703   0.49693   0.0000000000
C          C       0.10866   1.24175   0.51138   0.0000000000
C          C       0.07948   1.19673   0.50814   0.0000000000
C          C       0.09804   1.16952   0.50142   0.0000000000
C          C       0.14341   1.18510   0.49724   0.0000000000
C          C       0.17114   1.23048   0.49919   0.0000000000
C          C       0.47512   1.49976   0.49554   0.0000000000
C          C       0.52018   1.51612   0.49806   0.0000000000
C          C       0.54710   1.56196   0.49784   0.0000000000
C          C       0.53103   1.59134   0.49652   0.0000000000
C          C       0.48556   1.57316   0.49697   0.0000000000
C          C       0.03233   1.18085   0.51165   0.0000000000
C          C      -0.04286   1.11784   0.50822   0.0000000000
C          C      -0.06633   1.14066   0.51058   0.0000000000
C          C      -0.11194   1.11869   0.51085   0.0000000000
C          C      -0.13729   1.07256   0.50880   0.0000000000
C          C      -0.11384   1.04970   0.50647   0.0000000000
C          C      -0.06821   1.07169   0.50617   0.0000000000
C          C      -0.21254   1.00986   0.50611   0.0000000000
C          C       0.56250   1.63840   0.49488   0.0000000000
C          C       0.24024   1.75514   0.50903   0.0000000000
C          C       0.57481   1.71339   0.49162   0.0000000000
C          C       0.61951   1.73663   0.44608   0.0000000000
C          C       0.64319   1.78226   0.44435   0.0000000000
C          C       0.62389   1.80765   0.48716   0.0000000000
C          C       0.57916   1.78434   0.53201   0.0000000000
C          C       0.55549   1.73877   0.53368   0.0000000000
C          C       0.28501   1.77848   0.46471   0.0000000000
C          C       0.30870   1.82406   0.46378   0.0000000000
C          C       0.28933   1.84936   0.50614   0.0000000000
C          C       0.24459   1.82607   0.55080   0.0000000000
C          C       0.22090   1.78046   0.55191   0.0000000000
C          C       0.30139   1.92421   0.50740   0.0000000000
C          C       0.33270   1.97129   0.50613   0.0000000000
C          C       0.63488   1.88201   0.49071   0.0000000000
C          C       0.66540   1.92926   0.49532   0.0000000000
C          C       0.37818   1.98959   0.50766   0.0000000000
C          C       0.40768   2.03573   0.50457   0.0000000000
C          C       0.38839   2.06289   0.50232   0.0000000000
C          C       0.34330   2.04640   0.50027   0.0000000000
C          C       0.31648   2.00055   0.50245   0.0000000000
C          C       0.71128   1.94864   0.49839   0.0000000000
C          C       0.74035   1.99415   0.50410   0.0000000000
C          C       0.72174   2.02107   0.50712   0.0000000000
C          C       0.67549   2.00409   0.50241   0.0000000000
C          C       0.64858   1.95758   0.49728   0.0000000000
C          C       0.45484   2.05455   0.50050   0.0000000000
C          C       0.65631   2.03207   0.50078   0.0000000000
C          C       0.47649   2.03386   0.57601   0.0000000000
C          C       0.52176   2.05301   0.57713   0.0000000000
C          C       0.54917   2.09394   0.50090   0.0000000000
C          C       0.52826   2.11452   0.42331   0.0000000000
C          C       0.48307   2.09572   0.42275   0.0000000000
C          C       0.67559   2.07331   0.58488   0.0000000000
C          C       0.65620   2.09923   0.58571   0.0000000000
C          C       0.61641   2.08651   0.50148   0.0000000000
C          C       0.59707   2.04605   0.41659   0.0000000000
C          C       0.61607   2.01983   0.41645   0.0000000000
C          C       0.62407   2.16110   0.49845   0.0000000000
C          C       0.66457   2.18141   0.41362   0.0000000000
C          C       0.69137   2.22657   0.41113   0.0000000000
C          C       0.67981   2.25529   0.49367   0.0000000000
C          C       0.63840   2.23416   0.57672   0.0000000000
C          C       0.61188   2.18893   0.57975   0.0000000000
C          C       0.70865   2.30238   0.49592   0.0000000000
C          C       0.75511   2.32134   0.48995   0.0000000000
C          C       0.78412   2.36641   0.49222   0.0000000000
C          C       0.76539   2.39345   0.49980   0.0000000000
C          C       0.72000   2.37761   0.50576   0.0000000000
C          C       0.69245   2.33220   0.50460   0.0000000000
C          C       0.32730   2.07749   0.49613   0.0000000000
C          C       0.70482   2.40936   0.51230   0.0000000000
C          C       0.26472   2.08980   0.48944   0.0000000000
C          C       0.64284   2.42266   0.51694   0.0000000000
C          C       0.28802   2.13610   0.49011   0.0000000000
C          C       0.26651   2.16015   0.49005   0.0000000000
C          C       0.22043   2.13977   0.48930   0.0000000000
C          C       0.19710   2.09347   0.48790   0.0000000000
C          C       0.21863   2.06939   0.48798   0.0000000000
C          C       0.66615   2.46888   0.50687   0.0000000000
C          C       0.64467   2.49299   0.50651   0.0000000000
C          C       0.59865   2.47270   0.51574   0.0000000000
C          C       0.57537   2.42650   0.52697   0.0000000000
C          C       0.59685   2.40240   0.52742   0.0000000000
C          C       0.15842   2.15320   0.49139   0.0000000000
C          C       0.53616   2.48500   0.50065   0.0000000000
N          N       1.86042  -1.09193   0.00987   0.0000000000
N          N       2.04803  -1.00478   0.01022   0.0000000000
N          N       2.26779  -1.06686   0.00112   0.0000000000
N          N       2.00444  -1.37732  -0.00652   0.0000000000
N          N       1.81681  -1.46439  -0.01103   0.0000000000
N          N       2.21514  -0.80727  -0.01369   0.0000000000
N          N       2.54935  -0.84889   0.00288   0.0000000000
N          N       2.31511  -0.61998  -0.00424   0.0000000000
N          N       2.64919  -0.66163   0.00993   0.0000000000
N          N       2.59717  -0.40178  -0.00236   0.0000000000
N          N       2.28627  -0.45154   0.01145   0.0000000000
N          N       2.66416  -0.11891  -0.00861   0.0000000000
N          N       2.20120  -0.34940   0.01574   0.0000000000
N          N       2.57882  -0.01703  -0.00788   0.0000000000
N          N      -0.14025   1.42445   0.49190   0.0000000000
N          N       0.04736   1.51147   0.48805   0.0000000000
N          N       0.26713   1.44889   0.49733   0.0000000000
N          N       0.00376   1.13894   0.50749   0.0000000000
N          N      -0.18388   1.05171   0.50879   0.0000000000
N          N       0.21493   1.70860   0.51008   0.0000000000
N          N       0.54915   1.66691   0.49600   0.0000000000
N          N       0.31490   1.89584   0.50274   0.0000000000
N          N       0.64912   1.85420   0.48530   0.0000000000
N          N       0.59646   2.11384   0.50138   0.0000000000
N          N       0.28541   2.06397   0.49149   0.0000000000
N          N       0.66308   2.39644   0.51568   0.0000000000
N          N       0.20015   2.16597   0.49068   0.0000000000
N          N       0.57796   2.49850   0.51174   0.0000000000
