data_crystal
 
_cell_length_a    22.89590
_cell_length_b    22.89590
_cell_length_c    5.57000
_cell_angle_alpha 90.00000
_cell_angle_beta  90.00000
_cell_angle_gamma 120.00000
 
_symmetry_space_group_name_Hall 'P 1'
_symmetry_space_group_name_H-M  'P 1'
 
loop_
_symmetry_equiv_pos_as_xyz
 'x,y,z' 
 
loop_
_atom_site_label
_atom_site_type_symbol
_atom_site_fract_x
_atom_site_fract_y
_atom_site_fract_z
_atom_site_charge
H          H       0.37867   0.44849   0.38601   0.0000000000
H          H       0.55151   0.93018   0.38601   0.0000000000
H          H       0.06982   0.62133   0.38601   0.0000000000
H          H       0.62133   0.55151   0.38601   0.0000000000
H          H       0.44849   0.06982   0.38601   0.0000000000
H          H       0.93018   0.37867   0.38601   0.0000000000
H          H       0.65892   0.47976   0.43307   0.0000000000
H          H       0.52024   0.17916   0.43307   0.0000000000
H          H       0.82084   0.34108   0.43307   0.0000000000
H          H       0.34108   0.52024   0.43307   0.0000000000
H          H       0.47976   0.82084   0.43307   0.0000000000
H          H       0.17916   0.65892   0.43307   0.0000000000
C          C       0.54112   0.57074   0.38246   0.0000000000
C          C       0.42926   0.97038   0.38246   0.0000000000
C          C       0.02962   0.45888   0.38246   0.0000000000
C          C       0.45888   0.42926   0.38246   0.0000000000
C          C       0.57074   0.02962   0.38246   0.0000000000
C          C       0.97038   0.54112   0.38246   0.0000000000
C          C       0.57007   0.52889   0.38662   0.0000000000
C          C       0.47111   0.04117   0.38662   0.0000000000
C          C       0.95883   0.42993   0.38662   0.0000000000
C          C       0.42993   0.47111   0.38662   0.0000000000
C          C       0.52889   0.95883   0.38662   0.0000000000
C          C       0.04117   0.57007   0.38662   0.0000000000
C          C       0.53014   0.45774   0.38905   0.0000000000
C          C       0.54226   0.07240   0.38905   0.0000000000
C          C       0.92760   0.46986   0.38905   0.0000000000
C          C       0.46986   0.54226   0.38905   0.0000000000
C          C       0.45774   0.92760   0.38905   0.0000000000
C          C       0.07240   0.53014   0.38905   0.0000000000
C          C       0.62191   0.43018   0.41948   0.0000000000
C          C       0.56982   0.19173   0.41948   0.0000000000
C          C       0.80827   0.37809   0.41948   0.0000000000
C          C       0.37809   0.56982   0.41948   0.0000000000
C          C       0.43018   0.80827   0.41948   0.0000000000
C          C       0.19173   0.62191   0.41948   0.0000000000
S          S       0.59530   0.65805   0.36722   0.0000000000
S          S       0.34195   0.93725   0.36722   0.0000000000
S          S       0.06275   0.40470   0.36722   0.0000000000
S          S       0.40470   0.34195   0.36722   0.0000000000
S          S       0.65805   0.06275   0.36722   0.0000000000
S          S       0.93725   0.59530   0.36722   0.0000000000
O          O       0.43434   0.30689   0.17071   0.0000000000
O          O       0.69311   0.12745   0.17071   0.0000000000
O          O       0.87255   0.56566   0.17071   0.0000000000
O          O       0.56566   0.69311   0.17071   0.0000000000
O          O       0.30689   0.87255   0.17071   0.0000000000
O          O       0.12745   0.43434   0.17071   0.0000000000
O          O       0.33202   0.32342   0.27306   0.0000000000
O          O       0.67658   0.00860   0.27306   0.0000000000
O          O       0.99140   0.66799   0.27306   0.0000000000
O          O       0.66799   0.67658   0.27306   0.0000000000
O          O       0.32342   0.99140   0.27306   0.0000000000
O          O       0.00860   0.33202   0.27306   0.0000000000
O          O       0.39804   0.30895   0.62424   0.0000000000
O          O       0.69105   0.08909   0.62424   0.0000000000
O          O       0.91091   0.60196   0.62424   0.0000000000
O          O       0.60196   0.69105   0.62424   0.0000000000
O          O       0.30895   0.91091   0.62424   0.0000000000
O          O       0.08909   0.39804   0.62424   0.0000000000
H          H       0.40396   0.29424   0.03074   0.0000000000
H          H       0.70576   0.10972   0.03074   0.0000000000
H          H       0.89028   0.59604   0.03074   0.0000000000
H          H       0.59604   0.70576   0.03074   0.0000000000
H          H       0.29424   0.89028   0.03074   0.0000000000
H          H       0.10972   0.40396   0.03074   0.0000000000
N          N       0.55683   0.41599   0.39494   0.0000000000
H          H       0.52361   0.36778   0.37797   0.0000000000
N          N       0.58401   0.14084   0.39494   0.0000000000
H          H       0.63222   0.15583   0.37797   0.0000000000
N          N       0.85916   0.44317   0.39494   0.0000000000
H          H       0.84417   0.47639   0.37797   0.0000000000
N          N       0.44317   0.58401   0.39494   0.0000000000
H          H       0.47639   0.63222   0.37797   0.0000000000
N          N       0.41599   0.85916   0.39494   0.0000000000
H          H       0.36778   0.84417   0.37797   0.0000000000
N          N       0.14084   0.55683   0.39494   0.0000000000
H          H       0.15583   0.52361   0.37797   0.0000000000
C          C       0.59754   0.31043   0.42787   0.0000000000
C          C       0.64295   0.38108   0.42505   0.0000000000
C          C       0.68957   0.28712   0.42787   0.0000000000
C          C       0.61892   0.26187   0.42505   0.0000000000
C          C       0.71288   0.40246   0.42787   0.0000000000
C          C       0.73813   0.35705   0.42505   0.0000000000
C          C       0.40246   0.68957   0.42787   0.0000000000
C          C       0.35705   0.61892   0.42505   0.0000000000
C          C       0.31043   0.71288   0.42787   0.0000000000
C          C       0.38108   0.73813   0.42505   0.0000000000
C          C       0.28712   0.59754   0.42787   0.0000000000
C          C       0.26187   0.64295   0.42505   0.0000000000
O          O       0.53545   0.28911   0.43582   0.0000000000
O          O       0.71089   0.24634   0.43582   0.0000000000
O          O       0.75366   0.46455   0.43582   0.0000000000
O          O       0.46455   0.71089   0.43582   0.0000000000
O          O       0.28911   0.75366   0.43582   0.0000000000
O          O       0.24634   0.53545   0.43582   0.0000000000
