data_crystal
 
_cell_length_a    22.89590
_cell_length_b    22.89590
_cell_length_c    10.76000
_cell_angle_alpha 90.00000
_cell_angle_beta  90.00000
_cell_angle_gamma 120.00000
 
_symmetry_space_group_name_Hall 'P 1'
_symmetry_space_group_name_H-M  'P 1'
 
loop_
_symmetry_equiv_pos_as_xyz
 'x,y,z' 
 
loop_
_atom_site_label
_atom_site_type_symbol
_atom_site_fract_x
_atom_site_fract_y
_atom_site_fract_z
H          H       0.37273   0.44754   0.19448 
H          H       0.55246   0.92519   0.19448 
H          H       0.07481   0.62727   0.19449 
H          H       0.62727   0.55246   0.19448 
H          H       0.44754   0.07481   0.19449 
H          H       0.92519   0.37273   0.19449 
H          H       0.66428   0.48479   0.22245 
H          H       0.51521   0.17950   0.22245 
H          H       0.82050   0.33572   0.22245 
H          H       0.33572   0.51521   0.22245 
H          H       0.48479   0.82050   0.22245 
H          H       0.17950   0.66428   0.22245 
C          C       0.54099   0.57071   0.19106 
C          C       0.42929   0.97029   0.19107 
C          C       0.02971   0.45901   0.19107 
C          C       0.45901   0.42929   0.19106 
C          C       0.57071   0.02971   0.19107 
C          C       0.97029   0.54099   0.19107 
C          C       0.57008   0.52897   0.19357 
C          C       0.47103   0.04111   0.19357 
C          C       0.95889   0.42992   0.19357 
C          C       0.42992   0.47103   0.19357 
C          C       0.52897   0.95889   0.19357 
C          C       0.04111   0.57008   0.19357 
C          C       0.53026   0.45782   0.19501 
C          C       0.54218   0.07244   0.19502 
C          C       0.92756   0.46974   0.19502 
C          C       0.46974   0.54218   0.19501 
C          C       0.45782   0.92756   0.19502 
C          C       0.07244   0.53026   0.19502 
C          C       0.62197   0.43026   0.21239 
C          C       0.56974   0.19171   0.21239 
C          C       0.80829   0.37803   0.21240 
C          C       0.37803   0.56974   0.21239 
C          C       0.43026   0.80829   0.21239 
C          C       0.19171   0.62197   0.21240 
S          S       0.59509   0.65797   0.18166 
S          S       0.34203   0.93713   0.18167 
S          S       0.06287   0.40491   0.18167 
O          O       0.56411   0.69307   0.08302 
O          O       0.30693   0.87105   0.08303 
O          O       0.12895   0.43589   0.08303 
O          O       0.66670   0.67605   0.12779 
O          O       0.32395   0.99066   0.12781 
O          O       0.00934   0.33330   0.12781 
O          O       0.60429   0.69167   0.31469 
O          O       0.30833   0.91262   0.31470 
O          O       0.08739   0.39571   0.31471 
H          H       0.56514   0.73711   0.12836 
H          H       0.25407   0.85760   0.06332 
H          H       0.17348   0.47868   0.12773 
H          H       0.42533   0.37217   0.18584 
H          H       0.62783   0.05316   0.18584 
H          H       0.94684   0.57467   0.18585 
N          N       0.55693   0.41606   0.19850 
H          H       0.52343   0.36072   0.18912 
N          N       0.58394   0.14087   0.19851 
H          H       0.63928   0.16271   0.18912 
N          N       0.85913   0.44307   0.19851 
H          H       0.83729   0.47657   0.18913 
N          N       0.44307   0.58394   0.19850 
H          H       0.47657   0.63928   0.18912 
N          N       0.41606   0.85913   0.19851 
H          H       0.36072   0.83729   0.18912 
N          N       0.14087   0.55693   0.19851 
H          H       0.16271   0.52343   0.18913 
C          C       0.59757   0.31049   0.21734 
C          C       0.64300   0.38114   0.21568 
C          C       0.68952   0.28708   0.21734 
C          C       0.61886   0.26186   0.21568 
C          C       0.71292   0.40243   0.21734 
C          C       0.73814   0.35700   0.21568 
C          C       0.40243   0.68952   0.21734 
C          C       0.35700   0.61886   0.21568 
C          C       0.31049   0.71292   0.21734 
C          C       0.38114   0.73814   0.21568 
C          C       0.28708   0.59757   0.21734 
C          C       0.26186   0.64300   0.21568 
O          O       0.53552   0.28927   0.22200 
O          O       0.71073   0.24625   0.22201 
O          O       0.75375   0.46448   0.22201 
O          O       0.46448   0.71073   0.22200 
O          O       0.28927   0.75375   0.22201 
O          O       0.24625   0.53552   0.22201 
H          H       0.37273   0.44754   0.69448 
H          H       0.55246   0.92519   0.69448 
H          H       0.07481   0.62727   0.69449 
H          H       0.62727   0.55246   0.69448 
H          H       0.44754   0.07481   0.69449 
H          H       0.92519   0.37273   0.69449 
H          H       0.66428   0.48479   0.72245 
H          H       0.51521   0.17950   0.72245 
H          H       0.82050   0.33572   0.72245 
H          H       0.33572   0.51521   0.72245 
H          H       0.48479   0.82050   0.72245 
H          H       0.17950   0.66428   0.72245 
C          C       0.54099   0.57071   0.69106 
C          C       0.42929   0.97029   0.69107 
C          C       0.02971   0.45901   0.69107 
C          C       0.45901   0.42929   0.69106 
C          C       0.57071   0.02971   0.69107 
C          C       0.97029   0.54099   0.69107 
C          C       0.57008   0.52897   0.69356 
C          C       0.47103   0.04111   0.69357 
C          C       0.95889   0.42992   0.69357 
C          C       0.42992   0.47103   0.69356 
C          C       0.52897   0.95889   0.69357 
C          C       0.04111   0.57008   0.69357 
C          C       0.53026   0.45782   0.69501 
C          C       0.54218   0.07244   0.69502 
C          C       0.92756   0.46974   0.69502 
C          C       0.46974   0.54218   0.69501 
C          C       0.45782   0.92756   0.69502 
C          C       0.07244   0.53026   0.69502 
C          C       0.62197   0.43026   0.71239 
C          C       0.56974   0.19171   0.71239 
C          C       0.80829   0.37803   0.71240 
C          C       0.37803   0.56974   0.71239 
C          C       0.43026   0.80829   0.71239 
C          C       0.19171   0.62197   0.71240 
S          S       0.59509   0.65797   0.68166 
S          S       0.34203   0.93713   0.68167 
S          S       0.06287   0.40491   0.68167 
O          O       0.56411   0.69307   0.58302 
O          O       0.30693   0.87105   0.58303 
O          O       0.12895   0.43589   0.58303 
O          O       0.66670   0.67605   0.62779 
O          O       0.32395   0.99066   0.62781 
O          O       0.00934   0.33330   0.62781 
O          O       0.60429   0.69167   0.81469 
O          O       0.30833   0.91262   0.81470 
O          O       0.08739   0.39571   0.81471 
H          H       0.56514   0.73711   0.62836 
H          H       0.25407   0.85760   0.56332 
H          H       0.17348   0.47868   0.62774 
H          H       0.42533   0.37217   0.68583 
H          H       0.62783   0.05316   0.68584 
H          H       0.94684   0.57467   0.68585 
N          N       0.55693   0.41606   0.69850 
H          H       0.52343   0.36072   0.68912 
N          N       0.58394   0.14087   0.69851 
H          H       0.63928   0.16271   0.68912 
N          N       0.85913   0.44307   0.69851 
H          H       0.83729   0.47657   0.68913 
N          N       0.44307   0.58394   0.69850 
H          H       0.47657   0.63928   0.68912 
N          N       0.41606   0.85913   0.69851 
H          H       0.36072   0.83729   0.68912 
N          N       0.14087   0.55693   0.69851 
H          H       0.16271   0.52343   0.68913 
C          C       0.59757   0.31049   0.71734 
C          C       0.64300   0.38114   0.71568 
C          C       0.68952   0.28708   0.71734 
C          C       0.61886   0.26186   0.71568 
C          C       0.71292   0.40243   0.71734 
C          C       0.73814   0.35700   0.71568 
C          C       0.40243   0.68952   0.71734 
C          C       0.35700   0.61886   0.71568 
C          C       0.31049   0.71292   0.71734 
C          C       0.38114   0.73814   0.71568 
C          C       0.28708   0.59757   0.71734 
C          C       0.26186   0.64300   0.71568 
O          O       0.53552   0.28927   0.72200 
O          O       0.71073   0.24625   0.72201 
O          O       0.75375   0.46448   0.72201 
O          O       0.46448   0.71073   0.72200 
O          O       0.28927   0.75375   0.72201 
O          O       0.24625   0.53552   0.72201 
