data_crystal
 
_cell_length_a    22.89590
_cell_length_b    22.89590
_cell_length_c    11.14000
_cell_angle_alpha 90.00000
_cell_angle_beta  90.00000
_cell_angle_gamma 120.00000
 
_space_group_name_Hall 'P 1'
_space_group_name_H-M_alt  'P 1'
 
loop_
_symmetry_equiv_pos_as_xyz
 'x,y,z' 
 
loop_
_atom_site_label
_atom_site_type_symbol
_atom_site_fract_x
_atom_site_fract_y
_atom_site_fract_z
H          H       0.37867   0.44849   0.19301 
H          H       0.55151   0.93018   0.19301 
H          H       0.06982   0.62133   0.19301 
H          H       0.62133   0.55151   0.19301 
H          H       0.44849   0.06982   0.19301 
H          H       0.93018   0.37867   0.19301 
H          H       0.65892   0.47976   0.21654 
H          H       0.52024   0.17916   0.21654 
H          H       0.82084   0.34108   0.21654 
H          H       0.34108   0.52024   0.21654 
H          H       0.47976   0.82084   0.21654 
H          H       0.17916   0.65892   0.21654 
C          C       0.54112   0.57074   0.19123 
C          C       0.42926   0.97038   0.19123 
C          C       0.02962   0.45888   0.19123 
C          C       0.45888   0.42926   0.19123 
C          C       0.57074   0.02962   0.19123 
C          C       0.97038   0.54112   0.19123 
C          C       0.57007   0.52889   0.19331 
C          C       0.47111   0.04117   0.19331 
C          C       0.95883   0.42993   0.19331 
C          C       0.42993   0.47111   0.19331 
C          C       0.52889   0.95883   0.19331 
C          C       0.04117   0.57007   0.19331 
C          C       0.53014   0.45774   0.19453 
C          C       0.54226   0.07240   0.19453 
C          C       0.92760   0.46986   0.19453 
C          C       0.46986   0.54226   0.19453 
C          C       0.45774   0.92760   0.19453 
C          C       0.07240   0.53014   0.19453 
C          C       0.62191   0.43018   0.20974 
C          C       0.56982   0.19173   0.20974 
C          C       0.80827   0.37809   0.20974 
C          C       0.37809   0.56982   0.20974 
C          C       0.43018   0.80827   0.20974 
C          C       0.19173   0.62191   0.20974 
S          S       0.59530   0.65805   0.18361 
S          S       0.34195   0.93725   0.18361 
S          S       0.06275   0.40470   0.18361 
S          S       0.40470   0.34195   0.18361 
S          S       0.65805   0.06275   0.18361 
S          S       0.93725   0.59530   0.18361 
O          O       0.43434   0.30689   0.08536 
O          O       0.69311   0.12745   0.08536 
O          O       0.87255   0.56566   0.08536 
O          O       0.56566   0.69311   0.08536 
O          O       0.30689   0.87255   0.08536 
O          O       0.12745   0.43434   0.08536 
O          O       0.33202   0.32342   0.13653 
O          O       0.67658   0.00860   0.13653 
O          O       0.99140   0.66799   0.13653 
O          O       0.66799   0.67658   0.13653 
O          O       0.32342   0.99140   0.13653 
O          O       0.00860   0.33202   0.13653 
O          O       0.39804   0.30895   0.31212 
O          O       0.69105   0.08909   0.31212 
O          O       0.91091   0.60196   0.31212 
O          O       0.60196   0.69105   0.31212 
O          O       0.30895   0.91091   0.31212 
O          O       0.08909   0.39804   0.31212 
H          H       0.40396   0.29424   0.01537 
H          H       0.70576   0.10972   0.01537 
H          H       0.89028   0.59604   0.01537 
H          H       0.59604   0.70576   0.01537 
H          H       0.29424   0.89028   0.01537 
H          H       0.10972   0.40396   0.01537 
N          N       0.55683   0.41599   0.19747 
H          H       0.52361   0.36778   0.18898 
N          N       0.58401   0.14084   0.19747 
H          H       0.63222   0.15583   0.18898 
N          N       0.85916   0.44317   0.19747 
H          H       0.84417   0.47639   0.18898 
N          N       0.44317   0.58401   0.19747 
H          H       0.47639   0.63222   0.18898 
N          N       0.41599   0.85916   0.19747 
H          H       0.36778   0.84417   0.18898 
N          N       0.14084   0.55683   0.19747 
H          H       0.15583   0.52361   0.18898 
C          C       0.59754   0.31043   0.21393 
C          C       0.64295   0.38108   0.21253 
C          C       0.68957   0.28712   0.21393 
C          C       0.61892   0.26187   0.21253 
C          C       0.71288   0.40246   0.21393 
C          C       0.73813   0.35705   0.21253 
C          C       0.40246   0.68957   0.21393 
C          C       0.35705   0.61892   0.21253 
C          C       0.31043   0.71288   0.21393 
C          C       0.38108   0.73813   0.21253 
C          C       0.28712   0.59754   0.21393 
C          C       0.26187   0.64295   0.21253 
O          O       0.53545   0.28911   0.21791 
O          O       0.71089   0.24634   0.21791 
O          O       0.75366   0.46455   0.21791 
O          O       0.46455   0.71089   0.21791 
O          O       0.28911   0.75366   0.21791 
O          O       0.24634   0.53545   0.21791 
H          H       0.37867   0.44849   0.69301 
H          H       0.55151   0.93018   0.69301 
H          H       0.06982   0.62133   0.69301 
H          H       0.62133   0.55151   0.69301 
H          H       0.44849   0.06982   0.69301 
H          H       0.93018   0.37867   0.69301 
H          H       0.65892   0.47976   0.71654 
H          H       0.52024   0.17916   0.71654 
H          H       0.82084   0.34108   0.71654 
H          H       0.34108   0.52024   0.71654 
H          H       0.47976   0.82084   0.71654 
H          H       0.17916   0.65892   0.71654 
C          C       0.54112   0.57074   0.69123 
C          C       0.42926   0.97038   0.69123 
C          C       0.02962   0.45888   0.69123 
C          C       0.45888   0.42926   0.69123 
C          C       0.57074   0.02962   0.69123 
C          C       0.97038   0.54112   0.69123 
C          C       0.57007   0.52889   0.69331 
C          C       0.47111   0.04117   0.69331 
C          C       0.95883   0.42993   0.69331 
C          C       0.42993   0.47111   0.69331 
C          C       0.52889   0.95883   0.69331 
C          C       0.04117   0.57007   0.69331 
C          C       0.53014   0.45774   0.69452 
C          C       0.54226   0.07240   0.69452 
C          C       0.92760   0.46986   0.69452 
C          C       0.46986   0.54226   0.69452 
C          C       0.45774   0.92760   0.69452 
C          C       0.07240   0.53014   0.69452 
C          C       0.62191   0.43018   0.70974 
C          C       0.56982   0.19173   0.70974 
C          C       0.80827   0.37809   0.70974 
C          C       0.37809   0.56982   0.70974 
C          C       0.43018   0.80827   0.70974 
C          C       0.19173   0.62191   0.70974 
S          S       0.59530   0.65805   0.68361 
S          S       0.34195   0.93725   0.68361 
S          S       0.06275   0.40470   0.68361 
S          S       0.40470   0.34195   0.68361 
S          S       0.65805   0.06275   0.68361 
S          S       0.93725   0.59530   0.68361 
O          O       0.43434   0.30689   0.58535 
O          O       0.69311   0.12745   0.58535 
O          O       0.87255   0.56566   0.58535 
O          O       0.56566   0.69311   0.58535 
O          O       0.30689   0.87255   0.58535 
O          O       0.12745   0.43434   0.58535 
O          O       0.33202   0.32342   0.63653 
O          O       0.67658   0.00860   0.63653 
O          O       0.99140   0.66799   0.63653 
O          O       0.66799   0.67658   0.63653 
O          O       0.32342   0.99140   0.63653 
O          O       0.00860   0.33202   0.63653 
O          O       0.39804   0.30895   0.81212 
O          O       0.69105   0.08909   0.81212 
O          O       0.91091   0.60196   0.81212 
O          O       0.60196   0.69105   0.81212 
O          O       0.30895   0.91091   0.81212 
O          O       0.08909   0.39804   0.81212 
H          H       0.40396   0.29424   0.51537 
H          H       0.70576   0.10972   0.51537 
H          H       0.89028   0.59604   0.51537 
H          H       0.59604   0.70576   0.51537 
H          H       0.29424   0.89028   0.51537 
H          H       0.10972   0.40396   0.51537 
N          N       0.55683   0.41599   0.69747 
H          H       0.52361   0.36778   0.68899 
N          N       0.58401   0.14084   0.69747 
H          H       0.63222   0.15583   0.68899 
N          N       0.85916   0.44317   0.69747 
H          H       0.84417   0.47639   0.68899 
N          N       0.44317   0.58401   0.69747 
H          H       0.47639   0.63222   0.68899 
N          N       0.41599   0.85916   0.69747 
H          H       0.36778   0.84417   0.68899 
N          N       0.14084   0.55683   0.69747 
H          H       0.15583   0.52361   0.68899 
C          C       0.59754   0.31043   0.71393 
C          C       0.64295   0.38108   0.71253 
C          C       0.68957   0.28712   0.71393 
C          C       0.61892   0.26187   0.71253 
C          C       0.71288   0.40246   0.71393 
C          C       0.73813   0.35705   0.71253 
C          C       0.40246   0.68957   0.71393 
C          C       0.35705   0.61892   0.71253 
C          C       0.31043   0.71288   0.71393 
C          C       0.38108   0.73813   0.71253 
C          C       0.28712   0.59754   0.71393 
C          C       0.26187   0.64295   0.71253 
O          O       0.53545   0.28911   0.71791 
O          O       0.71089   0.24634   0.71791 
O          O       0.75366   0.46455   0.71791 
O          O       0.46455   0.71089   0.71791 
O          O       0.28911   0.75366   0.71791 
O          O       0.24634   0.53545   0.71791 
