data_crystal
 
_cell_length_a    29.71150
_cell_length_b    29.71150
_cell_length_c    3.46840
_cell_angle_alpha 90.00000
_cell_angle_beta  90.00000
_cell_angle_gamma 120.00000
 
_symmetry_space_group_name_Hall 'P 1'
_symmetry_space_group_name_H-M  'P 1'
 
loop_
_symmetry_equiv_pos_as_xyz
 'x,y,z' 
 
loop_
_atom_site_label
_atom_site_type_symbol
_atom_site_fract_x
_atom_site_fract_y
_atom_site_fract_z
_atom_site_charge
N          N       0.40674   0.59480   0.00000   0.0000000000
N          N       0.40520   0.81194   0.00000   0.0000000000
N          N       0.18805   0.59326   0.00000   0.0000000000
N          N       0.59326   0.40520   0.00000   0.0000000000
N          N       0.59480   0.18805   0.00000   0.0000000000
N          N       0.81194   0.40674   0.00000   0.0000000000
C          C       0.32159   0.61474   0.00000   0.0000000000
C          C       0.38526   0.70685   0.00000   0.0000000000
C          C       0.29315   0.67841   0.00000   0.0000000000
C          C       0.67841   0.38526   0.00000   0.0000000000
C          C       0.61474   0.29315   0.00000   0.0000000000
C          C       0.70685   0.32159   0.00000   0.0000000000
C          C       0.41556   0.64411   0.00000   0.0000000000
C          C       0.35589   0.77145   0.00000   0.0000000000
C          C       0.22855   0.58443   0.00000   0.0000000000
C          C       0.58443   0.35589   0.00000   0.0000000000
C          C       0.64411   0.22855   0.00000   0.0000000000
C          C       0.77145   0.41556   0.00000   0.0000000000
N          N       0.43506   0.57212   0.00000   0.0000000000
N          N       0.42788   0.86294   0.00000   0.0000000000
N          N       0.13706   0.56494   0.00000   0.0000000000
N          N       0.56494   0.42788   0.00000   0.0000000000
N          N       0.57212   0.13706   0.00000   0.0000000000
N          N       0.86294   0.43506   0.00000   0.0000000000
C          C       0.48847   0.59759   0.00000   0.0000000000
C          C       0.40241   0.89087   0.00000   0.0000000000
C          C       0.10912   0.51153   0.00000   0.0000000000
C          C       0.51153   0.40241   0.00000   0.0000000000
C          C       0.59759   0.10912   0.00000   0.0000000000
C          C       0.89087   0.48847   0.00000   0.0000000000
C          C       0.51569   0.56973   0.00000   0.0000000000
C          C       0.43027   0.94595   0.00000   0.0000000000
C          C       0.05404   0.48431   0.00000   0.0000000000
C          C       0.48431   0.43027   0.00000   0.0000000000
C          C       0.56973   0.05404   0.00000   0.0000000000
C          C       0.94595   0.51569   0.00000   0.0000000000
C          C       0.48689   0.51460   0.00000   0.0000000000
C          C       0.48540   0.97229   0.00000   0.0000000000
C          C       0.02771   0.51311   0.00000   0.0000000000
C          C       0.51311   0.48540   0.00000   0.0000000000
C          C       0.51460   0.02771   0.00000   0.0000000000
C          C       0.97229   0.48689   0.00000   0.0000000000
C          C       0.43179   0.48868   0.00000   0.0000000000
C          C       0.51132   0.94311   0.00000   0.0000000000
C          C       0.05689   0.56821   0.00000   0.0000000000
C          C       0.56821   0.51132   0.00000   0.0000000000
C          C       0.48868   0.05689   0.00000   0.0000000000
C          C       0.94311   0.43179   0.00000   0.0000000000
C          C       0.40693   0.51877   0.00000   0.0000000000
C          C       0.48123   0.88816   0.00000   0.0000000000
C          C       0.11184   0.59307   0.00000   0.0000000000
C          C       0.59307   0.48123   0.00000   0.0000000000
C          C       0.51877   0.11184   0.00000   0.0000000000
C          C       0.88816   0.40693   0.00000   0.0000000000
C          C       0.37428   0.65473   0.00000   0.0000000000
C          C       0.34527   0.71955   0.00000   0.0000000000
C          C       0.28045   0.62571   0.00000   0.0000000000
C          C       0.62571   0.34527   0.00000   0.0000000000
C          C       0.65473   0.28045   0.00000   0.0000000000
C          C       0.71955   0.37428   0.00000   0.0000000000
H          H       0.45270   0.67458   0.00000   0.0000000000
H          H       0.32542   0.77812   0.00000   0.0000000000
H          H       0.22188   0.54730   0.00000   0.0000000000
H          H       0.54730   0.32542   0.00000   0.0000000000
H          H       0.67458   0.22188   0.00000   0.0000000000
H          H       0.77812   0.45270   0.00000   0.0000000000
O          O       0.51464   0.64626   0.00000   0.0000000000
O          O       0.35374   0.86838   0.00000   0.0000000000
O          O       0.13161   0.48535   0.00000   0.0000000000
O          O       0.48535   0.35374   0.00000   0.0000000000
O          O       0.64626   0.13161   0.00000   0.0000000000
O          O       0.86838   0.51464   0.00000   0.0000000000
O          O       0.35804   0.49543   0.00000   0.0000000000
O          O       0.50456   0.86260   0.00000   0.0000000000
O          O       0.13740   0.64196   0.00000   0.0000000000
O          O       0.64196   0.50456   0.00000   0.0000000000
O          O       0.49543   0.13740   0.00000   0.0000000000
O          O       0.86260   0.35804   0.00000   0.0000000000
C          C       0.97567   0.57056   0.00000   0.0000000000
C          C       0.03012   0.59635   0.00000   0.0000000000
H          H       0.95802   0.59259   0.00000   0.0000000000
H          H       0.04996   0.63611   0.00000   0.0000000000
C          C       0.42943   0.40510   0.00000   0.0000000000
C          C       0.40365   0.43377   0.00000   0.0000000000
H          H       0.40741   0.36543   0.00000   0.0000000000
H          H       0.36389   0.41385   0.00000   0.0000000000
C          C       0.59490   0.02433   0.00000   0.0000000000
C          C       0.56623   0.96988   0.00000   0.0000000000
H          H       0.63457   0.04198   0.00000   0.0000000000
H          H       0.58615   0.95004   0.00000   0.0000000000
C          C       0.02433   0.42943   0.00000   0.0000000000
C          C       0.96988   0.40365   0.00000   0.0000000000
H          H       0.04198   0.40741   0.00000   0.0000000000
H          H       0.95004   0.36389   0.00000   0.0000000000
C          C       0.57056   0.59490   0.00000   0.0000000000
C          C       0.59635   0.56623   0.00000   0.0000000000
H          H       0.59259   0.63457   0.00000   0.0000000000
H          H       0.63611   0.58615   0.00000   0.0000000000
C          C       0.40510   0.97567   0.00000   0.0000000000
C          C       0.43377   0.03012   0.00000   0.0000000000
H          H       0.36543   0.95802   0.00000   0.0000000000
H          H       0.41385   0.04996   0.00000   0.0000000000
H          H       0.68715   0.42326   0.00000   0.0000000000
H          H       0.57674   0.26389   0.00000   0.0000000000
H          H       0.73611   0.31285   0.00000   0.0000000000
H          H       0.31285   0.57674   0.00000   0.0000000000
H          H       0.42326   0.73611   0.00000   0.0000000000
H          H       0.26389   0.68715   0.00000   0.0000000000
