data_crystal

_cell_length_a    18.70690
_cell_length_b    18.70690
_cell_length_c    7.06320
_cell_angle_alpha 90.00000
_cell_angle_beta  90.00000
_cell_angle_gamma 120.00000

_space_group_name_Hall 'P 1'
_space_group_name_H-M_alt  'P 1'

loop_
_symmetry_equiv_pos_as_xyz
'x,y,z' 

loop_
_atom_site_label
_atom_site_type_symbol
_atom_site_fract_x
_atom_site_fract_y
_atom_site_fract_z
C          C       0.38960   0.54964   0.25000 
C          C       0.45036   0.83996   0.25000 
C          C       0.16004   0.61040   0.25000 
N          N       0.46980   0.56891   0.25000 
N          N       0.43109   0.90089   0.25000 
N          N       0.09910   0.53020   0.25000 
C          C       0.50283   0.51883   0.25000 
C          C       0.48117   0.98400   0.25000 
C          C       0.01600   0.49717   0.25000 
C          C       0.58966   0.55830   0.25000 
C          C       0.44169   0.03136   0.25000 
C          C       0.96864   0.41034   0.25000 
C          C       0.63049   0.51231   0.25000 
C          C       0.48768   0.11817   0.25000 
C          C       0.88182   0.36951   0.25000 
H          H       0.34528   0.48848   0.25000 
H          H       0.51152   0.85680   0.25000 
H          H       0.14319   0.65472   0.25000 
H          H       0.62409   0.62140   0.25000 
H          H       0.37860   0.00268   0.25000 
H          H       0.99731   0.37591   0.25000 
H          H       0.69366   0.54388   0.25000 
H          H       0.45612   0.14979   0.25000 
H          H       0.85021   0.30633   0.25000 
C          C       0.58583   0.42478   0.25000 
C          C       0.57522   0.16105   0.25000 
C          C       0.83895   0.41416   0.25000 
C          C       0.49844   0.38559   0.25000 
C          C       0.61441   0.11285   0.25000 
C          C       0.88715   0.50156   0.25000 
C          C       0.45764   0.43163   0.25000 
C          C       0.56837   0.02601   0.25000 
C          C       0.97399   0.54235   0.25000 
H          H       0.46315   0.32256   0.25000 
H          H       0.67743   0.14058   0.25000 
H          H       0.85942   0.53685   0.25000 
H          H       0.39473   0.40045   0.25000 
H          H       0.59955   0.99428   0.25000 
H          H       0.00571   0.60526   0.25000 
H          H       0.50907   0.62776   0.25000 
H          H       0.37224   0.88131   0.25000 
H          H       0.11869   0.49093   0.25000 
N          N       0.58431   0.29470   0.25000 
N          N       0.70530   0.28961   0.25000 
N          N       0.71038   0.41569   0.25000 
C          C       0.62684   0.37840   0.25000 
C          C       0.62160   0.24844   0.25000 
C          C       0.75156   0.37316   0.25000 
C          C       0.41837   0.69573   0.25000 
C          C       0.30427   0.72264   0.25000 
C          C       0.27736   0.58163   0.25000 
C          C       0.36317   0.60907   0.25000 
C          C       0.39093   0.75410   0.25000 
C          C       0.24590   0.63682   0.25000 
O          O       0.49486   0.72325   0.25000 
O          O       0.27675   0.77160   0.25000 
O          O       0.22839   0.50514   0.25000 
C          C       0.38960   0.54964   0.75001 
C          C       0.45036   0.83996   0.75001 
C          C       0.16004   0.61040   0.75001 
N          N       0.46980   0.56891   0.75001 
N          N       0.43109   0.90089   0.75001 
N          N       0.09910   0.53020   0.75001 
C          C       0.50283   0.51883   0.75001 
C          C       0.48117   0.98400   0.75001 
C          C       0.01600   0.49717   0.75001 
C          C       0.58966   0.55830   0.75001 
C          C       0.44169   0.03136   0.75001 
C          C       0.96864   0.41034   0.75001 
C          C       0.63049   0.51231   0.75001 
C          C       0.48768   0.11817   0.75001 
C          C       0.88182   0.36951   0.75001 
H          H       0.34528   0.48848   0.75001 
H          H       0.51152   0.85680   0.75001 
H          H       0.14319   0.65472   0.75001 
H          H       0.62409   0.62140   0.75001 
H          H       0.37860   0.00268   0.75001 
H          H       0.99731   0.37591   0.75001 
H          H       0.69366   0.54388   0.75001 
H          H       0.45612   0.14979   0.75001 
H          H       0.85021   0.30633   0.75001 
C          C       0.58583   0.42478   0.75001 
C          C       0.57522   0.16105   0.75001 
C          C       0.83895   0.41416   0.75001 
C          C       0.49844   0.38559   0.75001 
C          C       0.61441   0.11285   0.75001 
C          C       0.88715   0.50156   0.75001 
C          C       0.45764   0.43163   0.75001 
C          C       0.56837   0.02601   0.75001 
C          C       0.97399   0.54235   0.75001 
H          H       0.46315   0.32256   0.75001 
H          H       0.67743   0.14058   0.75001 
H          H       0.85942   0.53685   0.75001 
H          H       0.39473   0.40045   0.75001 
H          H       0.59955   0.99428   0.75001 
H          H       0.00571   0.60526   0.75001 
H          H       0.50907   0.62776   0.75001 
H          H       0.37224   0.88131   0.75001 
H          H       0.11869   0.49093   0.75001 
N          N       0.58431   0.29470   0.75001 
N          N       0.70530   0.28961   0.75001 
N          N       0.71038   0.41569   0.75001 
C          C       0.62684   0.37840   0.75001 
C          C       0.62160   0.24844   0.75001 
C          C       0.75156   0.37316   0.75001 
C          C       0.41837   0.69573   0.75001 
C          C       0.30427   0.72264   0.75001 
C          C       0.27736   0.58163   0.75001 
C          C       0.36317   0.60907   0.75001 
C          C       0.39093   0.75410   0.75001 
C          C       0.24590   0.63682   0.75001 
O          O       0.49486   0.72325   0.75001 
O          O       0.27675   0.77160   0.75001 
O          O       0.22839   0.50514   0.75001 
