data_crystal
 
_cell_length_a    10.57000
_cell_length_b    10.49000
_cell_length_c    6.79720
_cell_angle_alpha 90.04520
_cell_angle_beta  89.23800
_cell_angle_gamma 120.56650
 
_symmetry_space_group_name_Hall 'P 1'
_symmetry_space_group_name_H-M  'P 1'
 
loop_
_symmetry_equiv_pos_as_xyz
 'x,y,z' 
 
loop_
_atom_site_label
_atom_site_type_symbol
_atom_site_fract_x
_atom_site_fract_y
_atom_site_fract_z
_atom_site_charge
O          O       0.14081   0.35298   0.24302   0.0000000000
C          C       0.24529   0.48719   0.24171   0.0000000000
C          C       0.40054   0.52653   0.23619   0.0000000000
O          O       0.65508   0.71230   0.22984   0.0000000000
C          C       0.52230   0.68241   0.23464   0.0000000000
C          C       0.48485   0.79995   0.23881   0.0000000000
C          C       0.59448   0.94796   0.23761   0.0000000000
C          C       0.33064   0.76566   0.24441   0.0000000000
O          O       0.30233   0.86998   0.24790   0.0000000000
C          C       0.21287   0.60880   0.24576   0.0000000000
C          C       0.06637   0.57017   0.25094   0.0000000000
N          N       0.55012   0.43360   0.22540   0.0000000000
N          N       0.70226   0.20131   0.23148   0.0000000000
N          N       0.80622   0.45637   0.23566   0.0000000000
C          C       0.42999   0.41298   0.23325   0.0000000000
N          N       0.57476   0.06454   0.23811   0.0000000000
N          N       0.55683   0.30540   0.22066   0.0000000000
C          C       0.68912   0.31967   0.22386   0.0000000000
N          N       0.94514   0.47740   0.22806   0.0000000000
H          H       0.03608   0.65994   0.26076   0.0000000000
H          H       0.81299   0.21373   0.23239   0.0000000000
H          H       0.45410   0.19595   0.21443   0.0000000000
H          H       0.96077   0.38070   0.21707   0.0000000000
H          H       0.64551   0.54841   0.22245   0.0000000000
H          H       0.33583   0.29310   0.23852   0.0000000000
H          H       0.71490   0.97970   0.23491   0.0000000000
H          H       0.46626   1.05818   0.24553   0.0000000000
H          H       0.79156   0.55268   0.25465   0.0000000000
I          I       0.90376   0.74321   0.64221   0.0000000000
O          O       0.14081   0.35298   0.74301   0.0000000000
C          C       0.24529   0.48719   0.74171   0.0000000000
C          C       0.40054   0.52653   0.73618   0.0000000000
O          O       0.65508   0.71230   0.72984   0.0000000000
C          C       0.52230   0.68241   0.73464   0.0000000000
C          C       0.48485   0.79995   0.73881   0.0000000000
C          C       0.59448   0.94796   0.73761   0.0000000000
C          C       0.33064   0.76566   0.74442   0.0000000000
O          O       0.30233   0.86998   0.74790   0.0000000000
C          C       0.21287   0.60880   0.74576   0.0000000000
C          C       0.06637   0.57017   0.75094   0.0000000000
N          N       0.55012   0.43360   0.72540   0.0000000000
N          N       0.70226   0.20131   0.73148   0.0000000000
N          N       0.80622   0.45637   0.73566   0.0000000000
C          C       0.42999   0.41298   0.73325   0.0000000000
N          N       0.57476   0.06454   0.73811   0.0000000000
N          N       0.55683   0.30540   0.72066   0.0000000000
C          C       0.68912   0.31967   0.72386   0.0000000000
N          N       0.94514   0.47740   0.72806   0.0000000000
H          H       0.03608   0.65994   0.76076   0.0000000000
H          H       0.81299   0.21373   0.73240   0.0000000000
H          H       0.45410   0.19595   0.71442   0.0000000000
H          H       0.96077   0.38070   0.71707   0.0000000000
H          H       0.64551   0.54841   0.72245   0.0000000000
H          H       0.33583   0.29310   0.73852   0.0000000000
H          H       0.71490   0.97970   0.73491   0.0000000000
H          H       0.46626   1.05818   0.74553   0.0000000000
H          H       0.79156   0.55268   0.75465   0.0000000000
I          I       0.90376   0.74321   1.14221   0.0000000000
