data_crystal
 
_cell_length_a    10.51510
_cell_length_b    10.52730
_cell_length_c    6.79720
_cell_angle_alpha 90.04520
_cell_angle_beta  89.23800
_cell_angle_gamma 120.56650
 
_symmetry_space_group_name_Hall 'P 1'
_symmetry_space_group_name_H-M  'P 1'
 
loop_
_symmetry_equiv_pos_as_xyz
 'x,y,z' 
 
loop_
_atom_site_label
_atom_site_type_symbol
_atom_site_fract_x
_atom_site_fract_y
_atom_site_fract_z
_atom_site_charge
O          O       0.14155   0.35173   0.24302   0.0000000000
C          C       0.24657   0.48546   0.24171   0.0000000000
C          C       0.40263   0.52466   0.23619   0.0000000000
O          O       0.65850   0.70978   0.22984   0.0000000000
C          C       0.52503   0.67999   0.23464   0.0000000000
C          C       0.48738   0.79712   0.23881   0.0000000000
C          C       0.59758   0.94460   0.23761   0.0000000000
C          C       0.33237   0.76295   0.24441   0.0000000000
O          O       0.30391   0.86690   0.24790   0.0000000000
C          C       0.21398   0.60664   0.24576   0.0000000000
C          C       0.06672   0.56815   0.25094   0.0000000000
N          N       0.55299   0.43206   0.22540   0.0000000000
N          N       0.70593   0.20060   0.23148   0.0000000000
N          N       0.81043   0.45475   0.23566   0.0000000000
C          C       0.43223   0.41152   0.23325   0.0000000000
N          N       0.57776   0.06431   0.23811   0.0000000000
N          N       0.55974   0.30432   0.22066   0.0000000000
C          C       0.69272   0.31854   0.22386   0.0000000000
N          N       0.95007   0.47571   0.22806   0.0000000000
H          H       0.03627   0.65760   0.26076   0.0000000000
H          H       0.81723   0.21297   0.23239   0.0000000000
H          H       0.45647   0.19526   0.21443   0.0000000000
H          H       0.96579   0.37935   0.21707   0.0000000000
H          H       0.64888   0.54647   0.22245   0.0000000000
H          H       0.33758   0.29206   0.23852   0.0000000000
H          H       0.71863   0.97623   0.23491   0.0000000000
H          H       0.46869   1.05443   0.24553   0.0000000000
H          H       0.79569   0.55072   0.25465   0.0000000000
Br         Br      0.88757   0.73556   0.64154   0.0000000000
O          O       0.14155   0.35173   0.74301   0.0000000000
C          C       0.24657   0.48546   0.74171   0.0000000000
C          C       0.40263   0.52466   0.73618   0.0000000000
O          O       0.65850   0.70978   0.72984   0.0000000000
C          C       0.52503   0.67999   0.73464   0.0000000000
C          C       0.48738   0.79712   0.73881   0.0000000000
C          C       0.59758   0.94460   0.73761   0.0000000000
C          C       0.33237   0.76295   0.74442   0.0000000000
O          O       0.30391   0.86690   0.74790   0.0000000000
C          C       0.21398   0.60664   0.74576   0.0000000000
C          C       0.06672   0.56815   0.75094   0.0000000000
N          N       0.55299   0.43206   0.72540   0.0000000000
N          N       0.70593   0.20060   0.73148   0.0000000000
N          N       0.81043   0.45475   0.73566   0.0000000000
C          C       0.43223   0.41152   0.73325   0.0000000000
N          N       0.57776   0.06431   0.73811   0.0000000000
N          N       0.55974   0.30432   0.72066   0.0000000000
C          C       0.69272   0.31854   0.72386   0.0000000000
N          N       0.95007   0.47571   0.72806   0.0000000000
H          H       0.03627   0.65760   0.76076   0.0000000000
H          H       0.81723   0.21297   0.73240   0.0000000000
H          H       0.45647   0.19526   0.71442   0.0000000000
H          H       0.96579   0.37935   0.71707   0.0000000000
H          H       0.64888   0.54647   0.72245   0.0000000000
H          H       0.33758   0.29206   0.73852   0.0000000000
H          H       0.71863   0.97623   0.73491   0.0000000000
H          H       0.46869   1.05443   0.74553   0.0000000000
H          H       0.79569   0.55072   0.75465   0.0000000000
Br         Br      0.88757   0.73556   1.14154   0.0000000000
