data_crystal
 
_cell_length_a    10.57000
_cell_length_b    10.49000
_cell_length_c    3.39860
_cell_angle_alpha 90.04520
_cell_angle_beta  89.23800
_cell_angle_gamma 120.56650
 
_symmetry_space_group_name_Hall 'P 1'
_symmetry_space_group_name_H-M  'P 1'
 
loop_
_symmetry_equiv_pos_as_xyz
 'x,y,z' 
 
loop_
_atom_site_label
_atom_site_type_symbol
_atom_site_fract_x
_atom_site_fract_y
_atom_site_fract_z
_atom_site_charge
O          O       0.14081   0.35298   0.48603   0.0000000000
C          C       0.24529   0.48719   0.48342   0.0000000000
C          C       0.40054   0.52653   0.47237   0.0000000000
O          O       0.65508   0.71230   0.45968   0.0000000000
C          C       0.52230   0.68241   0.46929   0.0000000000
C          C       0.48485   0.79995   0.47763   0.0000000000
C          C       0.59448   0.94796   0.47522   0.0000000000
C          C       0.33064   0.76566   0.48883   0.0000000000
O          O       0.30233   0.86998   0.49581   0.0000000000
C          C       0.21287   0.60880   0.49152   0.0000000000
C          C       0.06637   0.57017   0.50188   0.0000000000
N          N       0.55012   0.43360   0.45081   0.0000000000
N          N       0.70226   0.20131   0.46297   0.0000000000
N          N       0.80622   0.45637   0.47132   0.0000000000
C          C       0.42999   0.41298   0.46650   0.0000000000
N          N       0.57476   0.06454   0.47623   0.0000000000
N          N       0.55683   0.30540   0.44132   0.0000000000
C          C       0.68912   0.31967   0.44772   0.0000000000
N          N       0.94514   0.47740   0.45613   0.0000000000
H          H       0.03608   0.65994   0.52152   0.0000000000
H          H       0.81299   0.21373   0.46479   0.0000000000
H          H       0.45410   0.19595   0.42885   0.0000000000
H          H       0.96077   0.38070   0.43413   0.0000000000
H          H       0.64551   0.54841   0.44490   0.0000000000
H          H       0.33583   0.29310   0.47704   0.0000000000
H          H       0.71490   0.97970   0.46982   0.0000000000
H          H       0.46626   1.05818   0.49106   0.0000000000
H          H       0.79156   0.55268   0.50929   0.0000000000
I          I       0.90376   0.74321   1.28441   0.0000000000
