data_crystal
 
_cell_length_a    10.51510
_cell_length_b    10.52730
_cell_length_c    3.39860
_cell_angle_alpha 90.04520
_cell_angle_beta  89.23800
_cell_angle_gamma 120.56650
 
_symmetry_space_group_name_Hall 'P 1'
_symmetry_space_group_name_H-M  'P 1'
 
loop_
_symmetry_equiv_pos_as_xyz
 'x,y,z' 
 
loop_
_atom_site_label
_atom_site_type_symbol
_atom_site_fract_x
_atom_site_fract_y
_atom_site_fract_z
_atom_site_charge
O          O       0.14155   0.35173   0.48603   0.0000000000
C          C       0.24657   0.48546   0.48342   0.0000000000
C          C       0.40263   0.52466   0.47237   0.0000000000
O          O       0.65850   0.70978   0.45968   0.0000000000
C          C       0.52503   0.67999   0.46929   0.0000000000
C          C       0.48738   0.79712   0.47763   0.0000000000
C          C       0.59758   0.94460   0.47522   0.0000000000
C          C       0.33237   0.76295   0.48883   0.0000000000
O          O       0.30391   0.86690   0.49581   0.0000000000
C          C       0.21398   0.60664   0.49152   0.0000000000
C          C       0.06672   0.56815   0.50188   0.0000000000
N          N       0.55299   0.43206   0.45081   0.0000000000
N          N       0.70593   0.20060   0.46297   0.0000000000
N          N       0.81043   0.45475   0.47132   0.0000000000
C          C       0.43223   0.41152   0.46650   0.0000000000
N          N       0.57776   0.06431   0.47623   0.0000000000
N          N       0.55974   0.30432   0.44132   0.0000000000
C          C       0.69272   0.31854   0.44772   0.0000000000
N          N       0.95007   0.47571   0.45613   0.0000000000
H          H       0.03627   0.65760   0.52152   0.0000000000
H          H       0.81723   0.21297   0.46479   0.0000000000
H          H       0.45647   0.19526   0.42885   0.0000000000
H          H       0.96579   0.37935   0.43413   0.0000000000
H          H       0.64888   0.54647   0.44490   0.0000000000
H          H       0.33758   0.29206   0.47704   0.0000000000
H          H       0.71863   0.97623   0.46982   0.0000000000
H          H       0.46869   1.05443   0.49106   0.0000000000
H          H       0.79569   0.55072   0.50929   0.0000000000
Br         Br      0.88757   0.73556   1.28308   0.0000000000
