data_crystal
 
_cell_length_a    45.82180
_cell_length_b    45.82180
_cell_length_c    4.63000
_cell_angle_alpha 90.00000
_cell_angle_beta  90.00000
_cell_angle_gamma 120.00000
 
_symmetry_space_group_name_Hall 'P 1'
_symmetry_space_group_name_H-M  'P 1'
 
loop_
_symmetry_equiv_pos_as_xyz
 'x,y,z' 
 
loop_
_atom_site_label
_atom_site_type_symbol
_atom_site_fract_x
_atom_site_fract_y
_atom_site_fract_z
_atom_site_charge
C          C       0.48521   0.48505   0.33715   0.0000000000
C          C       0.45335   0.48445   0.35500   0.0000000000
C          C       0.42769   0.46467   0.16316   0.0000000000
C          C       0.39915   0.46706   0.15615   0.0000000000
C          C       0.39606   0.48933   0.34103   0.0000000000
C          C       0.42109   0.50817   0.54300   0.0000000000
C          C       0.44924   0.50514   0.55084   0.0000000000
H          H       0.46992   0.51998   0.69898   0.0000000000
C          C       0.48231   0.45204   0.32092   0.0000000000
C          C       0.45519   0.42493   0.45709   0.0000000000
C          C       0.45143   0.39338   0.45176   0.0000000000
C          C       0.47530   0.38829   0.31200   0.0000000000
C          C       0.50166   0.41477   0.16269   0.0000000000
C          C       0.50499   0.44603   0.16743   0.0000000000
N          N       0.36849   0.49322   0.32582   0.0000000000
C          C       0.33950   0.46724   0.30050   0.0000000000
C          C       0.31043   0.47090   0.27920   0.0000000000
C          C       0.28066   0.44644   0.40340   0.0000000000
C          C       0.25437   0.45239   0.43515   0.0000000000
C          C       0.25751   0.48218   0.33035   0.0000000000
C          C       0.28714   0.50620   0.19924   0.0000000000
C          C       0.31356   0.50057   0.17094   0.0000000000
N          N       0.47200   0.35705   0.31889   0.0000000000
C          C       0.49815   0.35426   0.34590   0.0000000000
C          C       0.49535   0.32178   0.33491   0.0000000000
C          C       0.52083   0.31690   0.44309   0.0000000000
C          C       0.51682   0.28515   0.44233   0.0000000000
C          C       0.48725   0.25838   0.33663   0.0000000000
C          C       0.46179   0.26334   0.22826   0.0000000000
C          C       0.46596   0.29494   0.22484   0.0000000000
H          H       0.43128   0.44846   0.01124   0.0000000000
H          H       0.37963   0.45345  -0.00609   0.0000000000
H          H       0.41739   0.52476   0.68887   0.0000000000
H          H       0.43705   0.42933   0.57361   0.0000000000
H          H       0.43088   0.37226   0.56419   0.0000000000
H          H       0.51888   0.40979   0.03771   0.0000000000
H          H       0.52590   0.46676   0.05485   0.0000000000
H          H       0.33591   0.44164   0.32268   0.0000000000
H          H       0.27941   0.42384   0.49309   0.0000000000
H          H       0.23121   0.43439   0.54447   0.0000000000
H          H       0.28823   0.52871   0.10931   0.0000000000
H          H       0.33725   0.51868   0.06936   0.0000000000
H          H       0.52314   0.37636   0.39103   0.0000000000
H          H       0.54333   0.33819   0.53486   0.0000000000
H          H       0.53608   0.28037   0.53011   0.0000000000
H          H       0.43899   0.24176   0.14486   0.0000000000
H          H       0.44693   0.30037   0.14256   0.0000000000
C          C       0.51495   0.00016   0.33715   0.0000000000
C          C       0.51555   0.96890   0.35500   0.0000000000
C          C       0.53533   0.96302   0.16316   0.0000000000
C          C       0.53294   0.93209   0.15615   0.0000000000
C          C       0.51067   0.90673   0.34103   0.0000000000
C          C       0.49183   0.91292   0.54300   0.0000000000
C          C       0.49486   0.94410   0.55084   0.0000000000
H          H       0.48002   0.94994   0.69898   0.0000000000
C          C       0.54796   0.03027   0.32092   0.0000000000
C          C       0.57507   0.03026   0.45709   0.0000000000
C          C       0.60662   0.05805   0.45176   0.0000000000
C          C       0.61171   0.08701   0.31200   0.0000000000
C          C       0.58523   0.08689   0.16269   0.0000000000
C          C       0.55397   0.05896   0.16743   0.0000000000
N          N       0.50678   0.87527   0.32582   0.0000000000
C          C       0.53276   0.87226   0.30050   0.0000000000
C          C       0.52910   0.83953   0.27920   0.0000000000
C          C       0.55356   0.83422   0.40340   0.0000000000
C          C       0.54761   0.80198   0.43515   0.0000000000
C          C       0.51782   0.77533   0.33035   0.0000000000
C          C       0.49380   0.78094   0.19924   0.0000000000
C          C       0.49943   0.81299   0.17094   0.0000000000
N          N       0.64295   0.11495   0.31889   0.0000000000
C          C       0.64574   0.14389   0.34590   0.0000000000
C          C       0.67822   0.17357   0.33491   0.0000000000
C          C       0.68310   0.20393   0.44309   0.0000000000
C          C       0.71485   0.23167   0.44233   0.0000000000
C          C       0.74162   0.22887   0.33663   0.0000000000
C          C       0.73666   0.19845   0.22826   0.0000000000
C          C       0.70506   0.17102   0.22484   0.0000000000
H          H       0.55154   0.98282   0.01124   0.0000000000
H          H       0.54655   0.92618  -0.00609   0.0000000000
H          H       0.47524   0.89263   0.68887   0.0000000000
H          H       0.57067   0.00772   0.57361   0.0000000000
H          H       0.62774   0.05862   0.56419   0.0000000000
H          H       0.59021   0.10909   0.03771   0.0000000000
H          H       0.53324   0.05914   0.05485   0.0000000000
H          H       0.55836   0.89427   0.32268   0.0000000000
H          H       0.57616   0.85557   0.49309   0.0000000000
H          H       0.56561   0.79682   0.54447   0.0000000000
H          H       0.47129   0.75952   0.10931   0.0000000000
H          H       0.48132   0.81857   0.06936   0.0000000000
H          H       0.62364   0.14678   0.39103   0.0000000000
H          H       0.66181   0.20514   0.53486   0.0000000000
H          H       0.71963   0.25571   0.53011   0.0000000000
H          H       0.75824   0.19723   0.14486   0.0000000000
H          H       0.69963   0.14656   0.14256   0.0000000000
C          C       0.99984   0.51479   0.33715   0.0000000000
C          C       0.03110   0.54665   0.35500   0.0000000000
C          C       0.03698   0.57231   0.16316   0.0000000000
C          C       0.06791   0.60085   0.15615   0.0000000000
C          C       0.09327   0.60394   0.34103   0.0000000000
C          C       0.08708   0.57891   0.54300   0.0000000000
C          C       0.05590   0.55076   0.55084   0.0000000000
H          H       0.05006   0.53008   0.69898   0.0000000000
C          C       0.96973   0.51769   0.32092   0.0000000000
C          C       0.96974   0.54481   0.45709   0.0000000000
C          C       0.94195   0.54857   0.45176   0.0000000000
C          C       0.91299   0.52470   0.31200   0.0000000000
C          C       0.91311   0.49834   0.16269   0.0000000000
C          C       0.94104   0.49501   0.16743   0.0000000000
N          N       0.12473   0.63151   0.32582   0.0000000000
C          C       0.12774   0.66050   0.30050   0.0000000000
C          C       0.16047   0.68957   0.27920   0.0000000000
C          C       0.16578   0.71934   0.40340   0.0000000000
C          C       0.19802   0.74563   0.43515   0.0000000000
C          C       0.22467   0.74249   0.33035   0.0000000000
C          C       0.21906   0.71286   0.19924   0.0000000000
C          C       0.18701   0.68644   0.17094   0.0000000000
N          N       0.88505   0.52800   0.31889   0.0000000000
C          C       0.85611   0.50185   0.34590   0.0000000000
C          C       0.82643   0.50465   0.33491   0.0000000000
C          C       0.79607   0.47917   0.44309   0.0000000000
C          C       0.76833   0.48318   0.44233   0.0000000000
C          C       0.77113   0.51275   0.33663   0.0000000000
C          C       0.80155   0.53821   0.22826   0.0000000000
C          C       0.82898   0.53404   0.22484   0.0000000000
H          H       0.01718   0.56872   0.01124   0.0000000000
H          H       0.07382   0.62037  -0.00609   0.0000000000
H          H       0.10737   0.58261   0.68887   0.0000000000
H          H       0.99228   0.56295   0.57361   0.0000000000
H          H       0.94138   0.56912   0.56419   0.0000000000
H          H       0.89091   0.48112   0.03771   0.0000000000
H          H       0.94086   0.47410   0.05485   0.0000000000
H          H       0.10573   0.66409   0.32268   0.0000000000
H          H       0.14443   0.72059   0.49309   0.0000000000
H          H       0.20318   0.76879   0.54447   0.0000000000
H          H       0.24048   0.71177   0.10931   0.0000000000
H          H       0.18143   0.66275   0.06936   0.0000000000
H          H       0.85322   0.47686   0.39103   0.0000000000
H          H       0.79486   0.45667   0.53486   0.0000000000
H          H       0.74429   0.46392   0.53011   0.0000000000
H          H       0.80277   0.56101   0.14486   0.0000000000
H          H       0.85344   0.55307   0.14256   0.0000000000
C          C       0.51479   0.51495   0.33715   0.0000000000
C          C       0.54665   0.51555   0.35500   0.0000000000
C          C       0.57231   0.53533   0.16316   0.0000000000
C          C       0.60085   0.53294   0.15615   0.0000000000
C          C       0.60394   0.51067   0.34103   0.0000000000
C          C       0.57891   0.49183   0.54300   0.0000000000
C          C       0.55076   0.49486   0.55084   0.0000000000
H          H       0.53008   0.48002   0.69898   0.0000000000
C          C       0.51769   0.54796   0.32092   0.0000000000
C          C       0.54481   0.57507   0.45709   0.0000000000
C          C       0.54857   0.60662   0.45176   0.0000000000
C          C       0.52470   0.61171   0.31200   0.0000000000
C          C       0.49834   0.58523   0.16269   0.0000000000
C          C       0.49501   0.55397   0.16743   0.0000000000
N          N       0.63151   0.50678   0.32582   0.0000000000
C          C       0.66050   0.53276   0.30050   0.0000000000
C          C       0.68957   0.52910   0.27920   0.0000000000
C          C       0.71934   0.55356   0.40340   0.0000000000
C          C       0.74563   0.54761   0.43515   0.0000000000
C          C       0.74249   0.51782   0.33035   0.0000000000
C          C       0.71286   0.49380   0.19924   0.0000000000
C          C       0.68644   0.49943   0.17094   0.0000000000
N          N       0.52800   0.64295   0.31889   0.0000000000
C          C       0.50185   0.64574   0.34590   0.0000000000
C          C       0.50465   0.67822   0.33491   0.0000000000
C          C       0.47917   0.68310   0.44309   0.0000000000
C          C       0.48318   0.71485   0.44233   0.0000000000
C          C       0.51275   0.74162   0.33663   0.0000000000
C          C       0.53821   0.73666   0.22826   0.0000000000
C          C       0.53404   0.70506   0.22484   0.0000000000
H          H       0.56872   0.55154   0.01124   0.0000000000
H          H       0.62037   0.54655  -0.00609   0.0000000000
H          H       0.58261   0.47524   0.68887   0.0000000000
H          H       0.56295   0.57067   0.57361   0.0000000000
H          H       0.56912   0.62774   0.56419   0.0000000000
H          H       0.48112   0.59021   0.03771   0.0000000000
H          H       0.47410   0.53324   0.05485   0.0000000000
H          H       0.66409   0.55836   0.32268   0.0000000000
H          H       0.72059   0.57616   0.49309   0.0000000000
H          H       0.76879   0.56561   0.54447   0.0000000000
H          H       0.71177   0.47129   0.10931   0.0000000000
H          H       0.66275   0.48132   0.06936   0.0000000000
H          H       0.47686   0.62364   0.39103   0.0000000000
H          H       0.45667   0.66181   0.53486   0.0000000000
H          H       0.46392   0.71963   0.53011   0.0000000000
H          H       0.56101   0.75824   0.14486   0.0000000000
H          H       0.55307   0.69963   0.14256   0.0000000000
C          C       0.48505   0.99984   0.33715   0.0000000000
C          C       0.48445   0.03110   0.35500   0.0000000000
C          C       0.46467   0.03698   0.16316   0.0000000000
C          C       0.46706   0.06791   0.15615   0.0000000000
C          C       0.48933   0.09327   0.34103   0.0000000000
C          C       0.50817   0.08708   0.54300   0.0000000000
C          C       0.50514   0.05590   0.55084   0.0000000000
H          H       0.51998   0.05006   0.69898   0.0000000000
C          C       0.45204   0.96973   0.32092   0.0000000000
C          C       0.42493   0.96974   0.45709   0.0000000000
C          C       0.39338   0.94195   0.45176   0.0000000000
C          C       0.38829   0.91299   0.31200   0.0000000000
C          C       0.41477   0.91311   0.16269   0.0000000000
C          C       0.44603   0.94104   0.16743   0.0000000000
N          N       0.49322   0.12473   0.32582   0.0000000000
C          C       0.46724   0.12774   0.30050   0.0000000000
C          C       0.47090   0.16047   0.27920   0.0000000000
C          C       0.44644   0.16578   0.40340   0.0000000000
C          C       0.45239   0.19802   0.43515   0.0000000000
C          C       0.48218   0.22467   0.33035   0.0000000000
C          C       0.50620   0.21906   0.19924   0.0000000000
C          C       0.50057   0.18701   0.17094   0.0000000000
N          N       0.35705   0.88505   0.31889   0.0000000000
C          C       0.35426   0.85611   0.34590   0.0000000000
C          C       0.32178   0.82643   0.33491   0.0000000000
C          C       0.31690   0.79607   0.44309   0.0000000000
C          C       0.28515   0.76833   0.44233   0.0000000000
C          C       0.25838   0.77113   0.33663   0.0000000000
C          C       0.26334   0.80155   0.22826   0.0000000000
C          C       0.29494   0.82898   0.22484   0.0000000000
H          H       0.44846   0.01718   0.01124   0.0000000000
H          H       0.45345   0.07382  -0.00609   0.0000000000
H          H       0.52476   0.10737   0.68887   0.0000000000
H          H       0.42933   0.99228   0.57361   0.0000000000
H          H       0.37226   0.94138   0.56419   0.0000000000
H          H       0.40979   0.89091   0.03771   0.0000000000
H          H       0.46676   0.94086   0.05485   0.0000000000
H          H       0.44164   0.10573   0.32268   0.0000000000
H          H       0.42384   0.14443   0.49309   0.0000000000
H          H       0.43439   0.20318   0.54447   0.0000000000
H          H       0.52871   0.24048   0.10931   0.0000000000
H          H       0.51868   0.18143   0.06936   0.0000000000
H          H       0.37636   0.85322   0.39103   0.0000000000
H          H       0.33819   0.79486   0.53486   0.0000000000
H          H       0.28037   0.74429   0.53011   0.0000000000
H          H       0.24176   0.80277   0.14486   0.0000000000
H          H       0.30037   0.85344   0.14256   0.0000000000
C          C       0.00016   0.48521   0.33715   0.0000000000
C          C       0.96890   0.45335   0.35500   0.0000000000
C          C       0.96302   0.42769   0.16316   0.0000000000
C          C       0.93209   0.39915   0.15615   0.0000000000
C          C       0.90673   0.39606   0.34103   0.0000000000
C          C       0.91292   0.42109   0.54300   0.0000000000
C          C       0.94410   0.44924   0.55084   0.0000000000
H          H       0.94994   0.46992   0.69898   0.0000000000
C          C       0.03027   0.48231   0.32092   0.0000000000
C          C       0.03026   0.45519   0.45709   0.0000000000
C          C       0.05805   0.45143   0.45176   0.0000000000
C          C       0.08701   0.47530   0.31200   0.0000000000
C          C       0.08689   0.50166   0.16269   0.0000000000
C          C       0.05896   0.50499   0.16743   0.0000000000
N          N       0.87527   0.36849   0.32582   0.0000000000
C          C       0.87226   0.33950   0.30050   0.0000000000
C          C       0.83953   0.31043   0.27920   0.0000000000
C          C       0.83422   0.28066   0.40340   0.0000000000
C          C       0.80198   0.25437   0.43515   0.0000000000
C          C       0.77533   0.25751   0.33035   0.0000000000
C          C       0.78094   0.28714   0.19924   0.0000000000
C          C       0.81299   0.31356   0.17094   0.0000000000
N          N       0.11495   0.47200   0.31889   0.0000000000
C          C       0.14389   0.49815   0.34590   0.0000000000
C          C       0.17357   0.49535   0.33491   0.0000000000
C          C       0.20393   0.52083   0.44309   0.0000000000
C          C       0.23167   0.51682   0.44233   0.0000000000
C          C       0.22887   0.48725   0.33663   0.0000000000
C          C       0.19845   0.46179   0.22826   0.0000000000
C          C       0.17102   0.46596   0.22484   0.0000000000
H          H       0.98282   0.43128   0.01124   0.0000000000
H          H       0.92618   0.37963  -0.00609   0.0000000000
H          H       0.89263   0.41739   0.68887   0.0000000000
H          H       0.00772   0.43705   0.57361   0.0000000000
H          H       0.05862   0.43088   0.56419   0.0000000000
H          H       0.10909   0.51888   0.03771   0.0000000000
H          H       0.05914   0.52590   0.05485   0.0000000000
H          H       0.89427   0.33591   0.32268   0.0000000000
H          H       0.85557   0.27941   0.49309   0.0000000000
H          H       0.79682   0.23121   0.54447   0.0000000000
H          H       0.75952   0.28823   0.10931   0.0000000000
H          H       0.81857   0.33725   0.06936   0.0000000000
H          H       0.14678   0.52314   0.39103   0.0000000000
H          H       0.20514   0.54333   0.53486   0.0000000000
H          H       0.25571   0.53608   0.53011   0.0000000000
H          H       0.19723   0.43899   0.14486   0.0000000000
H          H       0.14656   0.44693   0.14256   0.0000000000
