data_crystal

_cell_length_a    54.83820
_cell_length_b    54.83820
_cell_length_c    9.60840
_cell_angle_alpha 90.00000
_cell_angle_beta  90.00000
_cell_angle_gamma 120.00000

_space_group_name_Hall 'P 1'
_space_group_name_H-M_alt  'P 1'

loop_
_symmetry_equiv_pos_as_xyz
'x,y,z' 

loop_
_atom_site_label
_atom_site_type_symbol
_atom_site_fract_x
_atom_site_fract_y
_atom_site_fract_z
C          C       0.48720   0.48790   0.24995 
C          C       0.46012   0.48749   0.25245 
C          C       0.43756   0.46772   0.17122 
C          C       0.41198   0.46681   0.16970 
C          C       0.40836   0.48627   0.24927 
C          C       0.43061   0.50592   0.33205 
C          C       0.45570   0.50614   0.33463 
C          C       0.48372   0.45958   0.24780 
C          C       0.46240   0.43831   0.32911 
C          C       0.45805   0.41135   0.32979 
C          C       0.47563   0.40501   0.25088 
C          C       0.49691   0.42598   0.16875 
C          C       0.50061   0.45267   0.16643 
C          C       0.36002   0.46619   0.27605 
C          C       0.33423   0.46707   0.25749 
C          C       0.31016   0.44820   0.33163 
C          C       0.28648   0.45099   0.32815 
C          C       0.28657   0.47245   0.24884 
C          C       0.31044   0.49051   0.16980 
C          C       0.33401   0.48782   0.17313 
C          C       0.26218   0.47634   0.24910 
C          C       0.49192   0.37440   0.28902 
C          C       0.49031   0.34738   0.27752 
C          C       0.51017   0.34267   0.34504 
C          C       0.50876   0.31694   0.33287 
C          C       0.48699   0.29520   0.25644 
C          C       0.46707   0.30007   0.19004 
C          C       0.46885   0.32590   0.19806 
C          C       0.48417   0.26748   0.25125 
C          C       0.50736   0.26340   0.25087 
C          C       0.45720   0.24369   0.25022 
C          C       0.50377   0.23673   0.24897 
C          C       0.23500   0.45315   0.25022 
H          H       0.47310   0.52130   0.40675 
H          H       0.44070   0.45280   0.10165 
H          H       0.39500   0.45210   0.09595 
H          H       0.42750   0.52060   0.40280 
H          H       0.44900   0.44360   0.39950 
H          H       0.44170   0.39520   0.40125 
H          H       0.50990   0.42080   0.09730 
H          H       0.51710   0.46910   0.09545 
H          H       0.35870   0.44730   0.32975 
H          H       0.31120   0.43230   0.40435 
H          H       0.26860   0.43740   0.39810 
H          H       0.31040   0.50660   0.09785 
H          H       0.35350   0.50180   0.10775 
H          H       0.51160   0.39240   0.33690 
H          H       0.52640   0.35990   0.41730 
H          H       0.52380   0.31350   0.39500 
H          H       0.45060   0.28380   0.12230 
H          H       0.45410   0.33100   0.13945 
H          H       0.52810   0.28220   0.25100 
H          H       0.43870   0.24700   0.25235 
H          H       0.28730   0.52170   0.24920 
H          H       0.23320   0.43240   0.24985 
N          N       0.38378   0.48705   0.24199 
N          N       0.47171   0.37817   0.25135 
C          C       0.51210   0.99930   0.24995 
C          C       0.51251   0.97263   0.25245 
C          C       0.53228   0.96983   0.17122 
C          C       0.53319   0.94517   0.16970 
C          C       0.51373   0.92210   0.24927 
C          C       0.49408   0.92469   0.33205 
C          C       0.49386   0.94956   0.33463 
C          C       0.54042   0.02414   0.24780 
C          C       0.56169   0.02409   0.32911 
C          C       0.58865   0.04670   0.32979 
C          C       0.59499   0.07062   0.25088 
C          C       0.57402   0.07093   0.16875 
C          C       0.54733   0.04793   0.16643 
C          C       0.53381   0.89383   0.27605 
C          C       0.53293   0.86716   0.25749 
C          C       0.55180   0.86196   0.33163 
C          C       0.54901   0.83549   0.32815 
C          C       0.52755   0.81412   0.24884 
C          C       0.50949   0.81993   0.16980 
C          C       0.51218   0.84619   0.17313 
C          C       0.52365   0.78584   0.24910 
C          C       0.62560   0.11752   0.28902 
C          C       0.65262   0.14293   0.27752 
C          C       0.65733   0.16750   0.34504 
C          C       0.68306   0.19182   0.33287 
C          C       0.70479   0.19178   0.25644 
C          C       0.69993   0.16699   0.19004 
C          C       0.67410   0.14295   0.19806 
C          C       0.73252   0.21669   0.25125 
C          C       0.73660   0.24396   0.25087 
C          C       0.75631   0.21351   0.25022 
C          C       0.76327   0.26705   0.24897 
C          C       0.54685   0.78185   0.25022 
H          H       0.47870   0.95180   0.40675 
H          H       0.54720   0.98790   0.10165 
H          H       0.54790   0.94290   0.09595 
H          H       0.47940   0.90690   0.40280 
H          H       0.55640   0.00540   0.39950 
H          H       0.60480   0.04650   0.40125 
H          H       0.57920   0.08910   0.09730 
H          H       0.53090   0.04800   0.09545 
H          H       0.55270   0.91140   0.32975 
H          H       0.56770   0.87890   0.40435 
H          H       0.56260   0.83120   0.39810 
H          H       0.49340   0.80380   0.09785 
H          H       0.49820   0.85170   0.10775 
H          H       0.60760   0.11920   0.33690 
H          H       0.64010   0.16650   0.41730 
H          H       0.68650   0.21030   0.39500 
H          H       0.71620   0.16680   0.12230 
H          H       0.66900   0.12310   0.13945 
H          H       0.71780   0.24590   0.25100 
H          H       0.75300   0.19170   0.25235 
H          H       0.47830   0.76560   0.24920 
H          H       0.56760   0.80080   0.24985 
N          N       0.51295   0.89672   0.24199 
N          N       0.62183   0.09354   0.25135 
C          C       0.00070   0.51280   0.24995 
C          C       0.02737   0.53988   0.25245 
C          C       0.03017   0.56244   0.17122 
C          C       0.05483   0.58801   0.16970 
C          C       0.07790   0.59164   0.24927 
C          C       0.07531   0.56939   0.33205 
C          C       0.05044   0.54430   0.33463 
C          C       0.97586   0.51628   0.24780 
C          C       0.97591   0.53760   0.32911 
C          C       0.95330   0.54195   0.32979 
C          C       0.92938   0.52437   0.25088 
C          C       0.92907   0.50309   0.16875 
C          C       0.95207   0.49939   0.16643 
C          C       0.10617   0.63998   0.27605 
C          C       0.13284   0.66577   0.25749 
C          C       0.13804   0.68984   0.33163 
C          C       0.16451   0.71352   0.32815 
C          C       0.18588   0.71343   0.24884 
C          C       0.18007   0.68956   0.16980 
C          C       0.15381   0.66599   0.17313 
C          C       0.21416   0.73782   0.24910 
C          C       0.88248   0.50808   0.28902 
C          C       0.85707   0.50969   0.27752 
C          C       0.83250   0.48983   0.34504 
C          C       0.80818   0.49124   0.33287 
C          C       0.80822   0.51301   0.25644 
C          C       0.83300   0.53293   0.19004 
C          C       0.85705   0.53115   0.19806 
C          C       0.78331   0.51583   0.25125 
C          C       0.75604   0.49264   0.25087 
C          C       0.78649   0.54280   0.25022 
C          C       0.73295   0.49623   0.24897 
C          C       0.21815   0.76500   0.25022 
H          H       0.04820   0.52690   0.40675 
H          H       0.01210   0.55930   0.10165 
H          H       0.05710   0.60500   0.09595 
H          H       0.09310   0.57250   0.40280 
H          H       0.99460   0.55100   0.39950 
H          H       0.95350   0.55830   0.40125 
H          H       0.91090   0.49010   0.09730 
H          H       0.95200   0.48290   0.09545 
H          H       0.08860   0.64130   0.32975 
H          H       0.12110   0.68880   0.40435 
H          H       0.16880   0.73140   0.39810 
H          H       0.19620   0.68960   0.09785 
H          H       0.14830   0.64650   0.10775 
H          H       0.88080   0.48840   0.33690 
H          H       0.83350   0.47360   0.41730 
H          H       0.78970   0.47620   0.39500 
H          H       0.83320   0.54940   0.12230 
H          H       0.87690   0.54590   0.13945 
H          H       0.75410   0.47190   0.25100 
H          H       0.80830   0.56130   0.25235 
H          H       0.23440   0.71270   0.24920 
H          H       0.19920   0.76680   0.24985 
N          N       0.10327   0.61622   0.24199 
N          N       0.90646   0.52829   0.25135 
C          C       0.51280   0.51210   0.24995 
C          C       0.53988   0.51251   0.25245 
C          C       0.56244   0.53228   0.17122 
C          C       0.58801   0.53319   0.16970 
C          C       0.59164   0.51373   0.24927 
C          C       0.56939   0.49408   0.33205 
C          C       0.54430   0.49386   0.33463 
C          C       0.51628   0.54042   0.24780 
C          C       0.53760   0.56169   0.32911 
C          C       0.54195   0.58865   0.32979 
C          C       0.52437   0.59499   0.25088 
C          C       0.50309   0.57402   0.16875 
C          C       0.49939   0.54733   0.16643 
C          C       0.63998   0.53381   0.27605 
C          C       0.66577   0.53293   0.25749 
C          C       0.68984   0.55180   0.33163 
C          C       0.71352   0.54901   0.32815 
C          C       0.71343   0.52755   0.24884 
C          C       0.68956   0.50949   0.16980 
C          C       0.66599   0.51218   0.17313 
C          C       0.73782   0.52365   0.24910 
C          C       0.50808   0.62560   0.28902 
C          C       0.50969   0.65262   0.27752 
C          C       0.48983   0.65733   0.34504 
C          C       0.49124   0.68306   0.33287 
C          C       0.51301   0.70479   0.25644 
C          C       0.53293   0.69993   0.19004 
C          C       0.53115   0.67410   0.19806 
C          C       0.51583   0.73252   0.25125 
C          C       0.49264   0.73660   0.25087 
C          C       0.54280   0.75631   0.25022 
C          C       0.49623   0.76327   0.24897 
C          C       0.76500   0.54685   0.25022 
H          H       0.52690   0.47870   0.40675 
H          H       0.55930   0.54720   0.10165 
H          H       0.60500   0.54790   0.09595 
H          H       0.57250   0.47940   0.40280 
H          H       0.55100   0.55640   0.39950 
H          H       0.55830   0.60480   0.40125 
H          H       0.49010   0.57920   0.09730 
H          H       0.48290   0.53090   0.09545 
H          H       0.64130   0.55270   0.32975 
H          H       0.68880   0.56770   0.40435 
H          H       0.73140   0.56260   0.39810 
H          H       0.68960   0.49340   0.09785 
H          H       0.64650   0.49820   0.10775 
H          H       0.48840   0.60760   0.33690 
H          H       0.47360   0.64010   0.41730 
H          H       0.47620   0.68650   0.39500 
H          H       0.54940   0.71620   0.12230 
H          H       0.54590   0.66900   0.13945 
H          H       0.47190   0.71780   0.25100 
H          H       0.56130   0.75300   0.25235 
H          H       0.71270   0.47830   0.24920 
H          H       0.76680   0.56760   0.24985 
N          N       0.61622   0.51295   0.24199 
N          N       0.52829   0.62183   0.25135 
C          C       0.48790   0.00070   0.24995 
C          C       0.48749   0.02737   0.25245 
C          C       0.46772   0.03017   0.17122 
C          C       0.46681   0.05483   0.16970 
C          C       0.48627   0.07790   0.24927 
C          C       0.50592   0.07531   0.33205 
C          C       0.50614   0.05044   0.33463 
C          C       0.45958   0.97586   0.24780 
C          C       0.43831   0.97591   0.32911 
C          C       0.41135   0.95330   0.32979 
C          C       0.40501   0.92938   0.25088 
C          C       0.42598   0.92907   0.16875 
C          C       0.45267   0.95207   0.16643 
C          C       0.46619   0.10617   0.27605 
C          C       0.46707   0.13284   0.25749 
C          C       0.44820   0.13804   0.33163 
C          C       0.45099   0.16451   0.32815 
C          C       0.47245   0.18588   0.24884 
C          C       0.49051   0.18007   0.16980 
C          C       0.48782   0.15381   0.17313 
C          C       0.47634   0.21416   0.24910 
C          C       0.37440   0.88248   0.28902 
C          C       0.34738   0.85707   0.27752 
C          C       0.34267   0.83250   0.34504 
C          C       0.31694   0.80818   0.33287 
C          C       0.29520   0.80822   0.25644 
C          C       0.30007   0.83300   0.19004 
C          C       0.32590   0.85705   0.19806 
C          C       0.26748   0.78331   0.25125 
C          C       0.26340   0.75604   0.25087 
C          C       0.24369   0.78649   0.25022 
C          C       0.23673   0.73295   0.24897 
C          C       0.45315   0.21815   0.25022 
H          H       0.52130   0.04820   0.40675 
H          H       0.45280   0.01210   0.10165 
H          H       0.45210   0.05710   0.09595 
H          H       0.52060   0.09310   0.40280 
H          H       0.44360   0.99460   0.39950 
H          H       0.39520   0.95350   0.40125 
H          H       0.42080   0.91090   0.09730 
H          H       0.46910   0.95200   0.09545 
H          H       0.44730   0.08860   0.32975 
H          H       0.43230   0.12110   0.40435 
H          H       0.43740   0.16880   0.39810 
H          H       0.50660   0.19620   0.09785 
H          H       0.50180   0.14830   0.10775 
H          H       0.39240   0.88080   0.33690 
H          H       0.35990   0.83350   0.41730 
H          H       0.31350   0.78970   0.39500 
H          H       0.28380   0.83320   0.12230 
H          H       0.33100   0.87690   0.13945 
H          H       0.28220   0.75410   0.25100 
H          H       0.24700   0.80830   0.25235 
H          H       0.52170   0.23440   0.24920 
H          H       0.43240   0.19920   0.24985 
N          N       0.48705   0.10327   0.24199 
N          N       0.37817   0.90646   0.25135 
C          C       0.99930   0.48720   0.24995 
C          C       0.97263   0.46012   0.25245 
C          C       0.96983   0.43756   0.17122 
C          C       0.94517   0.41198   0.16970 
C          C       0.92210   0.40836   0.24927 
C          C       0.92469   0.43061   0.33205 
C          C       0.94956   0.45570   0.33463 
C          C       0.02414   0.48372   0.24780 
C          C       0.02409   0.46240   0.32911 
C          C       0.04670   0.45805   0.32979 
C          C       0.07062   0.47563   0.25088 
C          C       0.07093   0.49691   0.16875 
C          C       0.04793   0.50061   0.16643 
C          C       0.89383   0.36002   0.27605 
C          C       0.86716   0.33423   0.25749 
C          C       0.86196   0.31016   0.33163 
C          C       0.83549   0.28648   0.32815 
C          C       0.81412   0.28657   0.24884 
C          C       0.81993   0.31044   0.16980 
C          C       0.84619   0.33401   0.17313 
C          C       0.78584   0.26218   0.24910 
C          C       0.11752   0.49192   0.28902 
C          C       0.14293   0.49031   0.27752 
C          C       0.16750   0.51017   0.34504 
C          C       0.19182   0.50876   0.33287 
C          C       0.19178   0.48699   0.25644 
C          C       0.16699   0.46707   0.19004 
C          C       0.14295   0.46885   0.19806 
C          C       0.21669   0.48417   0.25125 
C          C       0.24396   0.50736   0.25087 
C          C       0.21351   0.45720   0.25022 
C          C       0.26705   0.50377   0.24897 
C          C       0.78185   0.23500   0.25022 
H          H       0.95180   0.47310   0.40675 
H          H       0.98790   0.44070   0.10165 
H          H       0.94290   0.39500   0.09595 
H          H       0.90690   0.42750   0.40280 
H          H       0.00540   0.44900   0.39950 
H          H       0.04650   0.44170   0.40125 
H          H       0.08910   0.50990   0.09730 
H          H       0.04800   0.51710   0.09545 
H          H       0.91140   0.35870   0.32975 
H          H       0.87890   0.31120   0.40435 
H          H       0.83120   0.26860   0.39810 
H          H       0.80380   0.31040   0.09785 
H          H       0.85170   0.35350   0.10775 
H          H       0.11920   0.51160   0.33690 
H          H       0.16650   0.52640   0.41730 
H          H       0.21030   0.52380   0.39500 
H          H       0.16680   0.45060   0.12230 
H          H       0.12310   0.45410   0.13945 
H          H       0.24590   0.52810   0.25100 
H          H       0.19170   0.43870   0.25235 
H          H       0.76560   0.28730   0.24920 
H          H       0.80080   0.23320   0.24985 
N          N       0.89672   0.38378   0.24199 
N          N       0.09354   0.47171   0.25135 
C          C       0.48720   0.48790   0.74995 
C          C       0.46012   0.48749   0.75245 
C          C       0.43756   0.46772   0.67122 
C          C       0.41198   0.46681   0.66970 
C          C       0.40836   0.48627   0.74927 
C          C       0.43061   0.50592   0.83205 
C          C       0.45570   0.50614   0.83463 
C          C       0.48372   0.45958   0.74780 
C          C       0.46240   0.43831   0.82911 
C          C       0.45805   0.41135   0.82979 
C          C       0.47563   0.40501   0.75087 
C          C       0.49691   0.42598   0.66875 
C          C       0.50061   0.45267   0.66643 
C          C       0.36002   0.46619   0.77605 
C          C       0.33423   0.46707   0.75748 
C          C       0.31016   0.44820   0.83162 
C          C       0.28648   0.45099   0.82815 
C          C       0.28657   0.47245   0.74884 
C          C       0.31044   0.49051   0.66980 
C          C       0.33401   0.48782   0.67313 
C          C       0.26218   0.47634   0.74910 
C          C       0.49192   0.37440   0.78902 
C          C       0.49031   0.34738   0.77751 
C          C       0.51017   0.34267   0.84504 
C          C       0.50876   0.31694   0.83286 
C          C       0.48699   0.29520   0.75644 
C          C       0.46707   0.30007   0.69005 
C          C       0.46885   0.32590   0.69805 
C          C       0.48417   0.26748   0.75125 
C          C       0.50736   0.26340   0.75087 
C          C       0.45720   0.24369   0.75022 
C          C       0.50377   0.23673   0.74897 
C          C       0.23500   0.45315   0.75022 
H          H       0.47310   0.52130   0.90675 
H          H       0.44070   0.45280   0.60165 
H          H       0.39500   0.45210   0.59595 
H          H       0.42750   0.52060   0.90280 
H          H       0.44900   0.44360   0.89950 
H          H       0.44170   0.39520   0.90125 
H          H       0.50990   0.42080   0.59730 
H          H       0.51710   0.46910   0.59545 
H          H       0.35870   0.44730   0.82975 
H          H       0.31120   0.43230   0.90435 
H          H       0.26860   0.43740   0.89810 
H          H       0.31040   0.50660   0.59785 
H          H       0.35350   0.50180   0.60775 
H          H       0.51160   0.39240   0.83690 
H          H       0.52640   0.35990   0.91730 
H          H       0.52380   0.31350   0.89500 
H          H       0.45060   0.28380   0.62230 
H          H       0.45410   0.33100   0.63945 
H          H       0.52810   0.28220   0.75100 
H          H       0.43870   0.24700   0.75235 
H          H       0.28730   0.52170   0.74920 
H          H       0.23320   0.43240   0.74985 
N          N       0.38378   0.48705   0.74199 
N          N       0.47171   0.37817   0.75135 
C          C       0.51210   0.99930   0.74995 
C          C       0.51251   0.97263   0.75245 
C          C       0.53228   0.96983   0.67122 
C          C       0.53319   0.94517   0.66970 
C          C       0.51373   0.92210   0.74927 
C          C       0.49408   0.92469   0.83205 
C          C       0.49386   0.94956   0.83463 
C          C       0.54042   0.02414   0.74780 
C          C       0.56169   0.02409   0.82911 
C          C       0.58865   0.04670   0.82979 
C          C       0.59499   0.07062   0.75087 
C          C       0.57402   0.07093   0.66875 
C          C       0.54733   0.04793   0.66643 
C          C       0.53381   0.89383   0.77605 
C          C       0.53293   0.86716   0.75748 
C          C       0.55180   0.86196   0.83162 
C          C       0.54901   0.83549   0.82815 
C          C       0.52755   0.81412   0.74884 
C          C       0.50949   0.81993   0.66980 
C          C       0.51218   0.84619   0.67313 
C          C       0.52365   0.78584   0.74910 
C          C       0.62560   0.11752   0.78902 
C          C       0.65262   0.14293   0.77751 
C          C       0.65733   0.16750   0.84504 
C          C       0.68306   0.19182   0.83286 
C          C       0.70479   0.19178   0.75644 
C          C       0.69993   0.16699   0.69005 
C          C       0.67410   0.14295   0.69805 
C          C       0.73252   0.21669   0.75125 
C          C       0.73660   0.24396   0.75087 
C          C       0.75631   0.21351   0.75022 
C          C       0.76327   0.26705   0.74897 
C          C       0.54685   0.78185   0.75022 
H          H       0.47870   0.95180   0.90675 
H          H       0.54720   0.98790   0.60165 
H          H       0.54790   0.94290   0.59595 
H          H       0.47940   0.90690   0.90280 
H          H       0.55640   0.00540   0.89950 
H          H       0.60480   0.04650   0.90125 
H          H       0.57920   0.08910   0.59730 
H          H       0.53090   0.04800   0.59545 
H          H       0.55270   0.91140   0.82975 
H          H       0.56770   0.87890   0.90435 
H          H       0.56260   0.83120   0.89810 
H          H       0.49340   0.80380   0.59785 
H          H       0.49820   0.85170   0.60775 
H          H       0.60760   0.11920   0.83690 
H          H       0.64010   0.16650   0.91730 
H          H       0.68650   0.21030   0.89500 
H          H       0.71620   0.16680   0.62230 
H          H       0.66900   0.12310   0.63945 
H          H       0.71780   0.24590   0.75100 
H          H       0.75300   0.19170   0.75235 
H          H       0.47830   0.76560   0.74920 
H          H       0.56760   0.80080   0.74985 
N          N       0.51295   0.89672   0.74199 
N          N       0.62183   0.09354   0.75135 
C          C       0.00070   0.51280   0.74995 
C          C       0.02737   0.53988   0.75245 
C          C       0.03017   0.56244   0.67122 
C          C       0.05483   0.58801   0.66970 
C          C       0.07790   0.59164   0.74927 
C          C       0.07531   0.56939   0.83205 
C          C       0.05044   0.54430   0.83463 
C          C       0.97586   0.51628   0.74780 
C          C       0.97591   0.53760   0.82911 
C          C       0.95330   0.54195   0.82979 
C          C       0.92938   0.52437   0.75087 
C          C       0.92907   0.50309   0.66875 
C          C       0.95207   0.49939   0.66643 
C          C       0.10617   0.63998   0.77605 
C          C       0.13284   0.66577   0.75748 
C          C       0.13804   0.68984   0.83162 
C          C       0.16451   0.71352   0.82815 
C          C       0.18588   0.71343   0.74884 
C          C       0.18007   0.68956   0.66980 
C          C       0.15381   0.66599   0.67313 
C          C       0.21416   0.73782   0.74910 
C          C       0.88248   0.50808   0.78902 
C          C       0.85707   0.50969   0.77751 
C          C       0.83250   0.48983   0.84504 
C          C       0.80818   0.49124   0.83286 
C          C       0.80822   0.51301   0.75644 
C          C       0.83300   0.53293   0.69005 
C          C       0.85705   0.53115   0.69805 
C          C       0.78331   0.51583   0.75125 
C          C       0.75604   0.49264   0.75087 
C          C       0.78649   0.54280   0.75022 
C          C       0.73295   0.49623   0.74897 
C          C       0.21815   0.76500   0.75022 
H          H       0.04820   0.52690   0.90675 
H          H       0.01210   0.55930   0.60165 
H          H       0.05710   0.60500   0.59595 
H          H       0.09310   0.57250   0.90280 
H          H       0.99460   0.55100   0.89950 
H          H       0.95350   0.55830   0.90125 
H          H       0.91090   0.49010   0.59730 
H          H       0.95200   0.48290   0.59545 
H          H       0.08860   0.64130   0.82975 
H          H       0.12110   0.68880   0.90435 
H          H       0.16880   0.73140   0.89810 
H          H       0.19620   0.68960   0.59785 
H          H       0.14830   0.64650   0.60775 
H          H       0.88080   0.48840   0.83690 
H          H       0.83350   0.47360   0.91730 
H          H       0.78970   0.47620   0.89500 
H          H       0.83320   0.54940   0.62230 
H          H       0.87690   0.54590   0.63945 
H          H       0.75410   0.47190   0.75100 
H          H       0.80830   0.56130   0.75235 
H          H       0.23440   0.71270   0.74920 
H          H       0.19920   0.76680   0.74985 
N          N       0.10327   0.61622   0.74199 
N          N       0.90646   0.52829   0.75135 
C          C       0.51280   0.51210   0.74995 
C          C       0.53988   0.51251   0.75245 
C          C       0.56244   0.53228   0.67122 
C          C       0.58801   0.53319   0.66970 
C          C       0.59164   0.51373   0.74927 
C          C       0.56939   0.49408   0.83205 
C          C       0.54430   0.49386   0.83463 
C          C       0.51628   0.54042   0.74780 
C          C       0.53760   0.56169   0.82911 
C          C       0.54195   0.58865   0.82979 
C          C       0.52437   0.59499   0.75087 
C          C       0.50309   0.57402   0.66875 
C          C       0.49939   0.54733   0.66643 
C          C       0.63998   0.53381   0.77605 
C          C       0.66577   0.53293   0.75748 
C          C       0.68984   0.55180   0.83162 
C          C       0.71352   0.54901   0.82815 
C          C       0.71343   0.52755   0.74884 
C          C       0.68956   0.50949   0.66980 
C          C       0.66599   0.51218   0.67313 
C          C       0.73782   0.52365   0.74910 
C          C       0.50808   0.62560   0.78902 
C          C       0.50969   0.65262   0.77751 
C          C       0.48983   0.65733   0.84504 
C          C       0.49124   0.68306   0.83286 
C          C       0.51301   0.70479   0.75644 
C          C       0.53293   0.69993   0.69005 
C          C       0.53115   0.67410   0.69805 
C          C       0.51583   0.73252   0.75125 
C          C       0.49264   0.73660   0.75087 
C          C       0.54280   0.75631   0.75022 
C          C       0.49623   0.76327   0.74897 
C          C       0.76500   0.54685   0.75022 
H          H       0.52690   0.47870   0.90675 
H          H       0.55930   0.54720   0.60165 
H          H       0.60500   0.54790   0.59595 
H          H       0.57250   0.47940   0.90280 
H          H       0.55100   0.55640   0.89950 
H          H       0.55830   0.60480   0.90125 
H          H       0.49010   0.57920   0.59730 
H          H       0.48290   0.53090   0.59545 
H          H       0.64130   0.55270   0.82975 
H          H       0.68880   0.56770   0.90435 
H          H       0.73140   0.56260   0.89810 
H          H       0.68960   0.49340   0.59785 
H          H       0.64650   0.49820   0.60775 
H          H       0.48840   0.60760   0.83690 
H          H       0.47360   0.64010   0.91730 
H          H       0.47620   0.68650   0.89500 
H          H       0.54940   0.71620   0.62230 
H          H       0.54590   0.66900   0.63945 
H          H       0.47190   0.71780   0.75100 
H          H       0.56130   0.75300   0.75235 
H          H       0.71270   0.47830   0.74920 
H          H       0.76680   0.56760   0.74985 
N          N       0.61622   0.51295   0.74199 
N          N       0.52829   0.62183   0.75135 
C          C       0.48790   0.00070   0.74995 
C          C       0.48749   0.02737   0.75245 
C          C       0.46772   0.03017   0.67122 
C          C       0.46681   0.05483   0.66970 
C          C       0.48627   0.07790   0.74927 
C          C       0.50592   0.07531   0.83205 
C          C       0.50614   0.05044   0.83463 
C          C       0.45958   0.97586   0.74780 
C          C       0.43831   0.97591   0.82911 
C          C       0.41135   0.95330   0.82979 
C          C       0.40501   0.92938   0.75087 
C          C       0.42598   0.92907   0.66875 
C          C       0.45267   0.95207   0.66643 
C          C       0.46619   0.10617   0.77605 
C          C       0.46707   0.13284   0.75748 
C          C       0.44820   0.13804   0.83162 
C          C       0.45099   0.16451   0.82815 
C          C       0.47245   0.18588   0.74884 
C          C       0.49051   0.18007   0.66980 
C          C       0.48782   0.15381   0.67313 
C          C       0.47634   0.21416   0.74910 
C          C       0.37440   0.88248   0.78902 
C          C       0.34738   0.85707   0.77751 
C          C       0.34267   0.83250   0.84504 
C          C       0.31694   0.80818   0.83286 
C          C       0.29520   0.80822   0.75644 
C          C       0.30007   0.83300   0.69005 
C          C       0.32590   0.85705   0.69805 
C          C       0.26748   0.78331   0.75125 
C          C       0.26340   0.75604   0.75087 
C          C       0.24369   0.78649   0.75022 
C          C       0.23673   0.73295   0.74897 
C          C       0.45315   0.21815   0.75022 
H          H       0.52130   0.04820   0.90675 
H          H       0.45280   0.01210   0.60165 
H          H       0.45210   0.05710   0.59595 
H          H       0.52060   0.09310   0.90280 
H          H       0.44360   0.99460   0.89950 
H          H       0.39520   0.95350   0.90125 
H          H       0.42080   0.91090   0.59730 
H          H       0.46910   0.95200   0.59545 
H          H       0.44730   0.08860   0.82975 
H          H       0.43230   0.12110   0.90435 
H          H       0.43740   0.16880   0.89810 
H          H       0.50660   0.19620   0.59785 
H          H       0.50180   0.14830   0.60775 
H          H       0.39240   0.88080   0.83690 
H          H       0.35990   0.83350   0.91730 
H          H       0.31350   0.78970   0.89500 
H          H       0.28380   0.83320   0.62230 
H          H       0.33100   0.87690   0.63945 
H          H       0.28220   0.75410   0.75100 
H          H       0.24700   0.80830   0.75235 
H          H       0.52170   0.23440   0.74920 
H          H       0.43240   0.19920   0.74985 
N          N       0.48705   0.10327   0.74199 
N          N       0.37817   0.90646   0.75135 
C          C       0.99930   0.48720   0.74995 
C          C       0.97263   0.46012   0.75245 
C          C       0.96983   0.43756   0.67122 
C          C       0.94517   0.41198   0.66970 
C          C       0.92210   0.40836   0.74927 
C          C       0.92469   0.43061   0.83205 
C          C       0.94956   0.45570   0.83463 
C          C       0.02414   0.48372   0.74780 
C          C       0.02409   0.46240   0.82911 
C          C       0.04670   0.45805   0.82979 
C          C       0.07062   0.47563   0.75087 
C          C       0.07093   0.49691   0.66875 
C          C       0.04793   0.50061   0.66643 
C          C       0.89383   0.36002   0.77605 
C          C       0.86716   0.33423   0.75748 
C          C       0.86196   0.31016   0.83162 
C          C       0.83549   0.28648   0.82815 
C          C       0.81412   0.28657   0.74884 
C          C       0.81993   0.31044   0.66980 
C          C       0.84619   0.33401   0.67313 
C          C       0.78584   0.26218   0.74910 
C          C       0.11752   0.49192   0.78902 
C          C       0.14293   0.49031   0.77751 
C          C       0.16750   0.51017   0.84504 
C          C       0.19182   0.50876   0.83286 
C          C       0.19178   0.48699   0.75644 
C          C       0.16699   0.46707   0.69005 
C          C       0.14295   0.46885   0.69805 
C          C       0.21669   0.48417   0.75125 
C          C       0.24396   0.50736   0.75087 
C          C       0.21351   0.45720   0.75022 
C          C       0.26705   0.50377   0.74897 
C          C       0.78185   0.23500   0.75022 
H          H       0.95180   0.47310   0.90675 
H          H       0.98790   0.44070   0.60165 
H          H       0.94290   0.39500   0.59595 
H          H       0.90690   0.42750   0.90280 
H          H       0.00540   0.44900   0.89950 
H          H       0.04650   0.44170   0.90125 
H          H       0.08910   0.50990   0.59730 
H          H       0.04800   0.51710   0.59545 
H          H       0.91140   0.35870   0.82975 
H          H       0.87890   0.31120   0.90435 
H          H       0.83120   0.26860   0.89810 
H          H       0.80380   0.31040   0.59785 
H          H       0.85170   0.35350   0.60775 
H          H       0.11920   0.51160   0.83690 
H          H       0.16650   0.52640   0.91730 
H          H       0.21030   0.52380   0.89500 
H          H       0.16680   0.45060   0.62230 
H          H       0.12310   0.45410   0.63945 
H          H       0.24590   0.52810   0.75100 
H          H       0.19170   0.43870   0.75235 
H          H       0.76560   0.28730   0.74920 
H          H       0.80080   0.23320   0.74985 
N          N       0.89672   0.38378   0.74199 
N          N       0.09354   0.47171   0.75135 
