data_crystal
 
_cell_length_a    41.19940
_cell_length_b    41.19940
_cell_length_c    9.16560
_cell_angle_alpha 90.00000
_cell_angle_beta  90.00000
_cell_angle_gamma 120.00000
 
_symmetry_space_group_name_Hall 'P 1'
_symmetry_space_group_name_H-M  'P 1'
 
loop_
_symmetry_equiv_pos_as_xyz
 'x,y,z' 
 
loop_
_atom_site_label
_atom_site_type_symbol
_atom_site_fract_x
_atom_site_fract_y
_atom_site_fract_z
_atom_site_charge
C          C       0.48283   0.48405   0.25515   0.0000000000
C          C       0.44769   0.48463   0.26114   0.0000000000
C          C       0.41863   0.46141   0.16698   0.0000000000
C          C       0.38599   0.46257   0.16313   0.0000000000
C          C       0.38138   0.48685   0.25604   0.0000000000
C          C       0.40984   0.50920   0.35454   0.0000000000
C          C       0.44240   0.50797   0.35632   0.0000000000
H          H       0.46540   0.52621   0.42871   0.0000000000
C          C       0.47764   0.44634   0.25133   0.0000000000
C          C       0.44884   0.41762   0.33238   0.0000000000
C          C       0.44353   0.38195   0.33200   0.0000000000
C          C       0.46702   0.37396   0.24876   0.0000000000
C          C       0.49485   0.40214   0.16237   0.0000000000
C          C       0.50016   0.43756   0.16575   0.0000000000
N          N       0.35010   0.49026   0.25386   0.0000000000
C          C       0.31779   0.46210   0.22667   0.0000000000
N          N       0.46169   0.33844   0.25067   0.0000000000
C          C       0.48975   0.33367   0.22932   0.0000000000
C          C       0.48485   0.29741   0.22280   0.0000000000
H          H       0.42279   0.44301   0.09265   0.0000000000
H          H       0.36441   0.44635   0.08173   0.0000000000
H          H       0.40507   0.52734   0.42779   0.0000000000
H          H       0.43034   0.42386   0.39699   0.0000000000
H          H       0.42147   0.35938   0.39598   0.0000000000
H          H       0.51111   0.39523   0.08685   0.0000000000
H          H       0.52224   0.45961   0.10040   0.0000000000
H          H       0.31319   0.43343   0.21358   0.0000000000
H          H       0.51875   0.35739   0.22123   0.0000000000
C          C       0.51195   0.28727   0.22171   0.0000000000
C          C       0.49565   0.24850   0.22192   0.0000000000
C          C       0.45639   0.22977   0.22107   0.0000000000
S          S       0.43983   0.26018   0.22256   0.0000000000
C          C       0.28635   0.46704   0.22137   0.0000000000
C          C       0.24907   0.44008   0.21940   0.0000000000
S          S       0.29417   0.51209   0.22506   0.0000000000
H          H       0.54173   0.30775   0.22250   0.0000000000
H          H       0.23935   0.41023   0.21858   0.0000000000
C          C       0.51595   0.99878   0.25515   0.0000000000
C          C       0.51537   0.96306   0.26114   0.0000000000
C          C       0.53859   0.95722   0.16698   0.0000000000
C          C       0.53743   0.92342   0.16313   0.0000000000
C          C       0.51315   0.89453   0.25604   0.0000000000
C          C       0.49080   0.90064   0.35454   0.0000000000
C          C       0.49203   0.93443   0.35632   0.0000000000
H          H       0.47379   0.93919   0.42871   0.0000000000
C          C       0.55366   0.03130   0.25133   0.0000000000
C          C       0.58238   0.03122   0.33238   0.0000000000
C          C       0.61805   0.06158   0.33200   0.0000000000
C          C       0.62604   0.09306   0.24876   0.0000000000
C          C       0.59786   0.09271   0.16237   0.0000000000
C          C       0.56244   0.06260   0.16575   0.0000000000
N          N       0.50974   0.85984   0.25386   0.0000000000
C          C       0.53790   0.85569   0.22667   0.0000000000
N          N       0.66156   0.12325   0.25067   0.0000000000
C          C       0.66633   0.15608   0.22932   0.0000000000
C          C       0.70259   0.18744   0.22280   0.0000000000
H          H       0.55699   0.97978   0.09265   0.0000000000
H          H       0.55365   0.91806   0.08173   0.0000000000
H          H       0.47266   0.87773   0.42779   0.0000000000
H          H       0.57614   0.00648   0.39699   0.0000000000
H          H       0.64062   0.06209   0.39598   0.0000000000
H          H       0.60477   0.11588   0.08685   0.0000000000
H          H       0.54039   0.06263   0.10040   0.0000000000
H          H       0.56657   0.87976   0.21358   0.0000000000
H          H       0.64261   0.16136   0.22123   0.0000000000
C          C       0.71273   0.22468   0.22171   0.0000000000
C          C       0.75150   0.24715   0.22192   0.0000000000
C          C       0.77023   0.22662   0.22107   0.0000000000
S          S       0.73982   0.17965   0.22256   0.0000000000
C          C       0.53296   0.81931   0.22137   0.0000000000
C          C       0.55992   0.80899   0.21940   0.0000000000
S          S       0.48791   0.78208   0.22506   0.0000000000
H          H       0.69225   0.23398   0.22250   0.0000000000
H          H       0.58977   0.82912   0.21858   0.0000000000
C          C       0.00122   0.51717   0.25515   0.0000000000
C          C       0.03694   0.55231   0.26114   0.0000000000
C          C       0.04278   0.58137   0.16698   0.0000000000
C          C       0.07658   0.61401   0.16313   0.0000000000
C          C       0.10547   0.61862   0.25604   0.0000000000
C          C       0.09936   0.59016   0.35454   0.0000000000
C          C       0.06557   0.55760   0.35632   0.0000000000
H          H       0.06081   0.53460   0.42871   0.0000000000
C          C       0.96870   0.52236   0.25133   0.0000000000
C          C       0.96878   0.55116   0.33238   0.0000000000
C          C       0.93842   0.55647   0.33200   0.0000000000
C          C       0.90694   0.53298   0.24876   0.0000000000
C          C       0.90729   0.50515   0.16237   0.0000000000
C          C       0.93740   0.49984   0.16575   0.0000000000
N          N       0.14016   0.64990   0.25386   0.0000000000
C          C       0.14431   0.68221   0.22667   0.0000000000
N          N       0.87675   0.53831   0.25067   0.0000000000
C          C       0.84392   0.51025   0.22932   0.0000000000
C          C       0.81256   0.51515   0.22280   0.0000000000
H          H       0.02022   0.57721   0.09265   0.0000000000
H          H       0.08194   0.63559   0.08173   0.0000000000
H          H       0.12227   0.59493   0.42779   0.0000000000
H          H       0.99352   0.56966   0.39699   0.0000000000
H          H       0.93791   0.57853   0.39598   0.0000000000
H          H       0.88412   0.48889   0.08685   0.0000000000
H          H       0.93737   0.47776   0.10040   0.0000000000
H          H       0.12024   0.68681   0.21358   0.0000000000
H          H       0.83864   0.48125   0.22123   0.0000000000
C          C       0.77532   0.48805   0.22171   0.0000000000
C          C       0.75285   0.50435   0.22192   0.0000000000
C          C       0.77338   0.54361   0.22107   0.0000000000
S          S       0.82035   0.56017   0.22256   0.0000000000
C          C       0.18069   0.71365   0.22137   0.0000000000
C          C       0.19101   0.75093   0.21940   0.0000000000
S          S       0.21792   0.70583   0.22506   0.0000000000
H          H       0.76602   0.45827   0.22250   0.0000000000
H          H       0.17088   0.76065   0.21858   0.0000000000
C          C       0.51717   0.51595   0.25515   0.0000000000
C          C       0.55231   0.51537   0.26114   0.0000000000
C          C       0.58137   0.53859   0.16698   0.0000000000
C          C       0.61401   0.53743   0.16313   0.0000000000
C          C       0.61862   0.51315   0.25604   0.0000000000
C          C       0.59016   0.49080   0.35454   0.0000000000
C          C       0.55760   0.49203   0.35632   0.0000000000
H          H       0.53460   0.47379   0.42871   0.0000000000
C          C       0.52236   0.55366   0.25133   0.0000000000
C          C       0.55116   0.58238   0.33238   0.0000000000
C          C       0.55647   0.61805   0.33200   0.0000000000
C          C       0.53298   0.62604   0.24876   0.0000000000
C          C       0.50515   0.59786   0.16237   0.0000000000
C          C       0.49984   0.56244   0.16575   0.0000000000
N          N       0.64990   0.50974   0.25386   0.0000000000
C          C       0.68221   0.53790   0.22667   0.0000000000
N          N       0.53831   0.66156   0.25067   0.0000000000
C          C       0.51025   0.66633   0.22932   0.0000000000
C          C       0.51515   0.70259   0.22280   0.0000000000
H          H       0.57721   0.55699   0.09265   0.0000000000
H          H       0.63559   0.55365   0.08173   0.0000000000
H          H       0.59493   0.47266   0.42779   0.0000000000
H          H       0.56966   0.57614   0.39699   0.0000000000
H          H       0.57853   0.64062   0.39598   0.0000000000
H          H       0.48889   0.60477   0.08685   0.0000000000
H          H       0.47776   0.54039   0.10040   0.0000000000
H          H       0.68681   0.56657   0.21358   0.0000000000
H          H       0.48125   0.64261   0.22123   0.0000000000
C          C       0.48805   0.71273   0.22171   0.0000000000
C          C       0.50435   0.75150   0.22192   0.0000000000
C          C       0.54361   0.77023   0.22107   0.0000000000
S          S       0.56017   0.73982   0.22256   0.0000000000
C          C       0.71365   0.53296   0.22137   0.0000000000
C          C       0.75093   0.55992   0.21940   0.0000000000
S          S       0.70583   0.48791   0.22506   0.0000000000
H          H       0.45827   0.69225   0.22250   0.0000000000
H          H       0.76065   0.58977   0.21858   0.0000000000
C          C       0.48405   0.00122   0.25515   0.0000000000
C          C       0.48463   0.03694   0.26114   0.0000000000
C          C       0.46141   0.04278   0.16698   0.0000000000
C          C       0.46257   0.07658   0.16313   0.0000000000
C          C       0.48685   0.10547   0.25604   0.0000000000
C          C       0.50920   0.09936   0.35454   0.0000000000
C          C       0.50797   0.06557   0.35632   0.0000000000
H          H       0.52621   0.06081   0.42871   0.0000000000
C          C       0.44634   0.96870   0.25133   0.0000000000
C          C       0.41762   0.96878   0.33238   0.0000000000
C          C       0.38195   0.93842   0.33200   0.0000000000
C          C       0.37396   0.90694   0.24876   0.0000000000
C          C       0.40214   0.90729   0.16237   0.0000000000
C          C       0.43756   0.93740   0.16575   0.0000000000
N          N       0.49026   0.14016   0.25386   0.0000000000
C          C       0.46210   0.14431   0.22667   0.0000000000
N          N       0.33844   0.87675   0.25067   0.0000000000
C          C       0.33367   0.84392   0.22932   0.0000000000
C          C       0.29741   0.81256   0.22280   0.0000000000
H          H       0.44301   0.02022   0.09265   0.0000000000
H          H       0.44635   0.08194   0.08173   0.0000000000
H          H       0.52734   0.12227   0.42779   0.0000000000
H          H       0.42386   0.99352   0.39699   0.0000000000
H          H       0.35938   0.93791   0.39598   0.0000000000
H          H       0.39523   0.88412   0.08685   0.0000000000
H          H       0.45961   0.93737   0.10040   0.0000000000
H          H       0.43343   0.12024   0.21358   0.0000000000
H          H       0.35739   0.83864   0.22123   0.0000000000
C          C       0.28727   0.77532   0.22171   0.0000000000
C          C       0.24850   0.75285   0.22192   0.0000000000
C          C       0.22977   0.77338   0.22107   0.0000000000
S          S       0.26018   0.82035   0.22256   0.0000000000
C          C       0.46704   0.18069   0.22137   0.0000000000
C          C       0.44008   0.19101   0.21940   0.0000000000
S          S       0.51209   0.21792   0.22506   0.0000000000
H          H       0.30775   0.76602   0.22250   0.0000000000
H          H       0.41023   0.17088   0.21858   0.0000000000
C          C       0.99878   0.48283   0.25515   0.0000000000
C          C       0.96306   0.44769   0.26114   0.0000000000
C          C       0.95722   0.41863   0.16698   0.0000000000
C          C       0.92342   0.38599   0.16313   0.0000000000
C          C       0.89453   0.38138   0.25604   0.0000000000
C          C       0.90064   0.40984   0.35454   0.0000000000
C          C       0.93443   0.44240   0.35632   0.0000000000
H          H       0.93919   0.46540   0.42871   0.0000000000
C          C       0.03130   0.47764   0.25133   0.0000000000
C          C       0.03122   0.44884   0.33238   0.0000000000
C          C       0.06158   0.44353   0.33200   0.0000000000
C          C       0.09306   0.46702   0.24876   0.0000000000
C          C       0.09271   0.49485   0.16237   0.0000000000
C          C       0.06260   0.50016   0.16575   0.0000000000
N          N       0.85984   0.35010   0.25386   0.0000000000
C          C       0.85569   0.31779   0.22667   0.0000000000
N          N       0.12325   0.46169   0.25067   0.0000000000
C          C       0.15608   0.48975   0.22932   0.0000000000
C          C       0.18744   0.48485   0.22280   0.0000000000
H          H       0.97978   0.42279   0.09265   0.0000000000
H          H       0.91806   0.36441   0.08173   0.0000000000
H          H       0.87773   0.40507   0.42779   0.0000000000
H          H       0.00648   0.43034   0.39699   0.0000000000
H          H       0.06209   0.42147   0.39598   0.0000000000
H          H       0.11588   0.51111   0.08685   0.0000000000
H          H       0.06263   0.52224   0.10040   0.0000000000
H          H       0.87976   0.31319   0.21358   0.0000000000
H          H       0.16136   0.51875   0.22123   0.0000000000
C          C       0.22468   0.51195   0.22171   0.0000000000
C          C       0.24715   0.49565   0.22192   0.0000000000
C          C       0.22662   0.45639   0.22107   0.0000000000
S          S       0.17965   0.43983   0.22256   0.0000000000
C          C       0.81931   0.28635   0.22137   0.0000000000
C          C       0.80899   0.24907   0.21940   0.0000000000
S          S       0.78208   0.29417   0.22506   0.0000000000
H          H       0.23398   0.54173   0.22250   0.0000000000
H          H       0.82912   0.23935   0.21858   0.0000000000
C          C       0.48283   0.48405   0.75514   0.0000000000
C          C       0.44769   0.48463   0.76114   0.0000000000
C          C       0.41863   0.46141   0.66698   0.0000000000
C          C       0.38599   0.46257   0.66313   0.0000000000
C          C       0.38138   0.48685   0.75604   0.0000000000
C          C       0.40984   0.50920   0.85454   0.0000000000
C          C       0.44240   0.50797   0.85632   0.0000000000
H          H       0.46540   0.52621   0.92870   0.0000000000
C          C       0.47764   0.44634   0.75133   0.0000000000
C          C       0.44884   0.41762   0.83239   0.0000000000
C          C       0.44353   0.38195   0.83200   0.0000000000
C          C       0.46702   0.37396   0.74875   0.0000000000
C          C       0.49485   0.40214   0.66237   0.0000000000
C          C       0.50016   0.43756   0.66574   0.0000000000
N          N       0.35010   0.49026   0.75386   0.0000000000
C          C       0.31779   0.46210   0.72667   0.0000000000
N          N       0.46169   0.33844   0.75067   0.0000000000
C          C       0.48975   0.33367   0.72932   0.0000000000
C          C       0.48485   0.29741   0.72280   0.0000000000
H          H       0.42279   0.44301   0.59265   0.0000000000
H          H       0.36441   0.44635   0.58173   0.0000000000
H          H       0.40507   0.52734   0.92780   0.0000000000
H          H       0.43034   0.42386   0.89699   0.0000000000
H          H       0.42147   0.35938   0.89599   0.0000000000
H          H       0.51111   0.39523   0.58684   0.0000000000
H          H       0.52224   0.45961   0.60040   0.0000000000
H          H       0.31319   0.43343   0.71358   0.0000000000
H          H       0.51875   0.35739   0.72123   0.0000000000
C          C       0.51195   0.28727   0.72171   0.0000000000
C          C       0.49565   0.24850   0.72192   0.0000000000
C          C       0.45639   0.22977   0.72108   0.0000000000
S          S       0.43983   0.26018   0.72257   0.0000000000
C          C       0.28635   0.46704   0.72137   0.0000000000
C          C       0.24907   0.44008   0.71940   0.0000000000
S          S       0.29417   0.51209   0.72506   0.0000000000
H          H       0.54173   0.30775   0.72250   0.0000000000
H          H       0.23935   0.41023   0.71858   0.0000000000
C          C       0.51595   0.99878   0.75514   0.0000000000
C          C       0.51537   0.96306   0.76114   0.0000000000
C          C       0.53859   0.95722   0.66698   0.0000000000
C          C       0.53743   0.92342   0.66313   0.0000000000
C          C       0.51315   0.89453   0.75604   0.0000000000
C          C       0.49080   0.90064   0.85454   0.0000000000
C          C       0.49203   0.93443   0.85632   0.0000000000
H          H       0.47379   0.93919   0.92870   0.0000000000
C          C       0.55366   0.03130   0.75133   0.0000000000
C          C       0.58238   0.03122   0.83239   0.0000000000
C          C       0.61805   0.06158   0.83200   0.0000000000
C          C       0.62604   0.09306   0.74875   0.0000000000
C          C       0.59786   0.09271   0.66237   0.0000000000
C          C       0.56244   0.06260   0.66574   0.0000000000
N          N       0.50974   0.85984   0.75386   0.0000000000
C          C       0.53790   0.85569   0.72667   0.0000000000
N          N       0.66156   0.12325   0.75067   0.0000000000
C          C       0.66633   0.15608   0.72932   0.0000000000
C          C       0.70259   0.18744   0.72280   0.0000000000
H          H       0.55699   0.97978   0.59265   0.0000000000
H          H       0.55365   0.91806   0.58173   0.0000000000
H          H       0.47266   0.87773   0.92780   0.0000000000
H          H       0.57614   0.00648   0.89699   0.0000000000
H          H       0.64062   0.06209   0.89599   0.0000000000
H          H       0.60477   0.11588   0.58684   0.0000000000
H          H       0.54039   0.06263   0.60040   0.0000000000
H          H       0.56657   0.87976   0.71358   0.0000000000
H          H       0.64261   0.16136   0.72123   0.0000000000
C          C       0.71273   0.22468   0.72171   0.0000000000
C          C       0.75150   0.24715   0.72192   0.0000000000
C          C       0.77023   0.22662   0.72108   0.0000000000
S          S       0.73982   0.17965   0.72257   0.0000000000
C          C       0.53296   0.81931   0.72137   0.0000000000
C          C       0.55992   0.80899   0.71940   0.0000000000
S          S       0.48791   0.78208   0.72506   0.0000000000
H          H       0.69225   0.23398   0.72250   0.0000000000
H          H       0.58977   0.82912   0.71858   0.0000000000
C          C       0.00122   0.51717   0.75514   0.0000000000
C          C       0.03694   0.55231   0.76114   0.0000000000
C          C       0.04278   0.58137   0.66698   0.0000000000
C          C       0.07658   0.61401   0.66313   0.0000000000
C          C       0.10547   0.61862   0.75604   0.0000000000
C          C       0.09936   0.59016   0.85454   0.0000000000
C          C       0.06557   0.55760   0.85632   0.0000000000
H          H       0.06081   0.53460   0.92870   0.0000000000
C          C       0.96870   0.52236   0.75133   0.0000000000
C          C       0.96878   0.55116   0.83239   0.0000000000
C          C       0.93842   0.55647   0.83200   0.0000000000
C          C       0.90694   0.53298   0.74875   0.0000000000
C          C       0.90729   0.50515   0.66237   0.0000000000
C          C       0.93740   0.49984   0.66574   0.0000000000
N          N       0.14016   0.64990   0.75386   0.0000000000
C          C       0.14431   0.68221   0.72667   0.0000000000
N          N       0.87675   0.53831   0.75067   0.0000000000
C          C       0.84392   0.51025   0.72932   0.0000000000
C          C       0.81256   0.51515   0.72280   0.0000000000
H          H       0.02022   0.57721   0.59265   0.0000000000
H          H       0.08194   0.63559   0.58173   0.0000000000
H          H       0.12227   0.59493   0.92780   0.0000000000
H          H       0.99352   0.56966   0.89699   0.0000000000
H          H       0.93791   0.57853   0.89599   0.0000000000
H          H       0.88412   0.48889   0.58684   0.0000000000
H          H       0.93737   0.47776   0.60040   0.0000000000
H          H       0.12024   0.68681   0.71358   0.0000000000
H          H       0.83864   0.48125   0.72123   0.0000000000
C          C       0.77532   0.48805   0.72171   0.0000000000
C          C       0.75285   0.50435   0.72192   0.0000000000
C          C       0.77338   0.54361   0.72108   0.0000000000
S          S       0.82035   0.56017   0.72257   0.0000000000
C          C       0.18069   0.71365   0.72137   0.0000000000
C          C       0.19101   0.75093   0.71940   0.0000000000
S          S       0.21792   0.70583   0.72506   0.0000000000
H          H       0.76602   0.45827   0.72250   0.0000000000
H          H       0.17088   0.76065   0.71858   0.0000000000
C          C       0.51717   0.51595   0.75514   0.0000000000
C          C       0.55231   0.51537   0.76114   0.0000000000
C          C       0.58137   0.53859   0.66698   0.0000000000
C          C       0.61401   0.53743   0.66313   0.0000000000
C          C       0.61862   0.51315   0.75604   0.0000000000
C          C       0.59016   0.49080   0.85454   0.0000000000
C          C       0.55760   0.49203   0.85632   0.0000000000
H          H       0.53460   0.47379   0.92870   0.0000000000
C          C       0.52236   0.55366   0.75133   0.0000000000
C          C       0.55116   0.58238   0.83239   0.0000000000
C          C       0.55647   0.61805   0.83200   0.0000000000
C          C       0.53298   0.62604   0.74875   0.0000000000
C          C       0.50515   0.59786   0.66237   0.0000000000
C          C       0.49984   0.56244   0.66574   0.0000000000
N          N       0.64990   0.50974   0.75386   0.0000000000
C          C       0.68221   0.53790   0.72667   0.0000000000
N          N       0.53831   0.66156   0.75067   0.0000000000
C          C       0.51025   0.66633   0.72932   0.0000000000
C          C       0.51515   0.70259   0.72280   0.0000000000
H          H       0.57721   0.55699   0.59265   0.0000000000
H          H       0.63559   0.55365   0.58173   0.0000000000
H          H       0.59493   0.47266   0.92780   0.0000000000
H          H       0.56966   0.57614   0.89699   0.0000000000
H          H       0.57853   0.64062   0.89599   0.0000000000
H          H       0.48889   0.60477   0.58684   0.0000000000
H          H       0.47776   0.54039   0.60040   0.0000000000
H          H       0.68681   0.56657   0.71358   0.0000000000
H          H       0.48125   0.64261   0.72123   0.0000000000
C          C       0.48805   0.71273   0.72171   0.0000000000
C          C       0.50435   0.75150   0.72192   0.0000000000
C          C       0.54361   0.77023   0.72108   0.0000000000
S          S       0.56017   0.73982   0.72257   0.0000000000
C          C       0.71365   0.53296   0.72137   0.0000000000
C          C       0.75093   0.55992   0.71940   0.0000000000
S          S       0.70583   0.48791   0.72506   0.0000000000
H          H       0.45827   0.69225   0.72250   0.0000000000
H          H       0.76065   0.58977   0.71858   0.0000000000
C          C       0.48405   0.00122   0.75514   0.0000000000
C          C       0.48463   0.03694   0.76114   0.0000000000
C          C       0.46141   0.04278   0.66698   0.0000000000
C          C       0.46257   0.07658   0.66313   0.0000000000
C          C       0.48685   0.10547   0.75604   0.0000000000
C          C       0.50920   0.09936   0.85454   0.0000000000
C          C       0.50797   0.06557   0.85632   0.0000000000
H          H       0.52621   0.06081   0.92870   0.0000000000
C          C       0.44634   0.96870   0.75133   0.0000000000
C          C       0.41762   0.96878   0.83239   0.0000000000
C          C       0.38195   0.93842   0.83200   0.0000000000
C          C       0.37396   0.90694   0.74875   0.0000000000
C          C       0.40214   0.90729   0.66237   0.0000000000
C          C       0.43756   0.93740   0.66574   0.0000000000
N          N       0.49026   0.14016   0.75386   0.0000000000
C          C       0.46210   0.14431   0.72667   0.0000000000
N          N       0.33844   0.87675   0.75067   0.0000000000
C          C       0.33367   0.84392   0.72932   0.0000000000
C          C       0.29741   0.81256   0.72280   0.0000000000
H          H       0.44301   0.02022   0.59265   0.0000000000
H          H       0.44635   0.08194   0.58173   0.0000000000
H          H       0.52734   0.12227   0.92780   0.0000000000
H          H       0.42386   0.99352   0.89699   0.0000000000
H          H       0.35938   0.93791   0.89599   0.0000000000
H          H       0.39523   0.88412   0.58684   0.0000000000
H          H       0.45961   0.93737   0.60040   0.0000000000
H          H       0.43343   0.12024   0.71358   0.0000000000
H          H       0.35739   0.83864   0.72123   0.0000000000
C          C       0.28727   0.77532   0.72171   0.0000000000
C          C       0.24850   0.75285   0.72192   0.0000000000
C          C       0.22977   0.77338   0.72108   0.0000000000
S          S       0.26018   0.82035   0.72257   0.0000000000
C          C       0.46704   0.18069   0.72137   0.0000000000
C          C       0.44008   0.19101   0.71940   0.0000000000
S          S       0.51209   0.21792   0.72506   0.0000000000
H          H       0.30775   0.76602   0.72250   0.0000000000
H          H       0.41023   0.17088   0.71858   0.0000000000
C          C       0.99878   0.48283   0.75514   0.0000000000
C          C       0.96306   0.44769   0.76114   0.0000000000
C          C       0.95722   0.41863   0.66698   0.0000000000
C          C       0.92342   0.38599   0.66313   0.0000000000
C          C       0.89453   0.38138   0.75604   0.0000000000
C          C       0.90064   0.40984   0.85454   0.0000000000
C          C       0.93443   0.44240   0.85632   0.0000000000
H          H       0.93919   0.46540   0.92870   0.0000000000
C          C       0.03130   0.47764   0.75133   0.0000000000
C          C       0.03122   0.44884   0.83239   0.0000000000
C          C       0.06158   0.44353   0.83200   0.0000000000
C          C       0.09306   0.46702   0.74875   0.0000000000
C          C       0.09271   0.49485   0.66237   0.0000000000
C          C       0.06260   0.50016   0.66574   0.0000000000
N          N       0.85984   0.35010   0.75386   0.0000000000
C          C       0.85569   0.31779   0.72667   0.0000000000
N          N       0.12325   0.46169   0.75067   0.0000000000
C          C       0.15608   0.48975   0.72932   0.0000000000
C          C       0.18744   0.48485   0.72280   0.0000000000
H          H       0.97978   0.42279   0.59265   0.0000000000
H          H       0.91806   0.36441   0.58173   0.0000000000
H          H       0.87773   0.40507   0.92780   0.0000000000
H          H       0.00648   0.43034   0.89699   0.0000000000
H          H       0.06209   0.42147   0.89599   0.0000000000
H          H       0.11588   0.51111   0.58684   0.0000000000
H          H       0.06263   0.52224   0.60040   0.0000000000
H          H       0.87976   0.31319   0.71358   0.0000000000
H          H       0.16136   0.51875   0.72123   0.0000000000
C          C       0.22468   0.51195   0.72171   0.0000000000
C          C       0.24715   0.49565   0.72192   0.0000000000
C          C       0.22662   0.45639   0.72108   0.0000000000
S          S       0.17965   0.43983   0.72257   0.0000000000
C          C       0.81931   0.28635   0.72137   0.0000000000
C          C       0.80899   0.24907   0.71940   0.0000000000
S          S       0.78208   0.29417   0.72506   0.0000000000
H          H       0.23398   0.54173   0.72250   0.0000000000
H          H       0.82912   0.23935   0.71858   0.0000000000
