data_crystal
 
_cell_length_a    41.19940
_cell_length_b    41.19940
_cell_length_c    4.58280
_cell_angle_alpha 90.00000
_cell_angle_beta  90.00000
_cell_angle_gamma 120.00000
 
_symmetry_space_group_name_Hall 'P 1'
_symmetry_space_group_name_H-M  'P 1'
 
loop_
_symmetry_equiv_pos_as_xyz
 'x,y,z' 
 
loop_
_atom_site_label
_atom_site_type_symbol
_atom_site_fract_x
_atom_site_fract_y
_atom_site_fract_z
_atom_site_charge
C          C       0.48283   0.48405   0.51029   0.0000000000
C          C       0.44769   0.48463   0.52227   0.0000000000
C          C       0.41863   0.46141   0.33396   0.0000000000
C          C       0.38599   0.46257   0.32626   0.0000000000
C          C       0.38138   0.48685   0.51208   0.0000000000
C          C       0.40984   0.50920   0.70908   0.0000000000
C          C       0.44240   0.50797   0.71264   0.0000000000
H          H       0.46540   0.52621   0.85741   0.0000000000
C          C       0.47764   0.44634   0.50266   0.0000000000
C          C       0.44884   0.41762   0.66477   0.0000000000
C          C       0.44353   0.38195   0.66400   0.0000000000
C          C       0.46702   0.37396   0.49751   0.0000000000
C          C       0.49485   0.40214   0.32474   0.0000000000
C          C       0.50016   0.43756   0.33149   0.0000000000
N          N       0.35010   0.49026   0.50772   0.0000000000
C          C       0.31779   0.46210   0.45334   0.0000000000
N          N       0.46169   0.33844   0.50134   0.0000000000
C          C       0.48975   0.33367   0.45864   0.0000000000
C          C       0.48485   0.29741   0.44560   0.0000000000
H          H       0.42279   0.44301   0.18530   0.0000000000
H          H       0.36441   0.44635   0.16345   0.0000000000
H          H       0.40507   0.52734   0.85559   0.0000000000
H          H       0.43034   0.42386   0.79399   0.0000000000
H          H       0.42147   0.35938   0.79197   0.0000000000
H          H       0.51111   0.39523   0.17369   0.0000000000
H          H       0.52224   0.45961   0.20080   0.0000000000
H          H       0.31319   0.43343   0.42717   0.0000000000
H          H       0.51875   0.35739   0.44246   0.0000000000
C          C       0.51195   0.28727   0.44343   0.0000000000
C          C       0.49565   0.24850   0.44385   0.0000000000
C          C       0.45639   0.22977   0.44215   0.0000000000
S          S       0.43983   0.26018   0.44513   0.0000000000
C          C       0.28635   0.46704   0.44274   0.0000000000
C          C       0.24907   0.44008   0.43881   0.0000000000
S          S       0.29417   0.51209   0.45012   0.0000000000
H          H       0.54173   0.30775   0.44500   0.0000000000
H          H       0.23935   0.41023   0.43716   0.0000000000
C          C       0.51595   0.99878   0.51029   0.0000000000
C          C       0.51537   0.96306   0.52227   0.0000000000
C          C       0.53859   0.95722   0.33396   0.0000000000
C          C       0.53743   0.92342   0.32626   0.0000000000
C          C       0.51315   0.89453   0.51208   0.0000000000
C          C       0.49080   0.90064   0.70908   0.0000000000
C          C       0.49203   0.93443   0.71264   0.0000000000
H          H       0.47379   0.93919   0.85741   0.0000000000
C          C       0.55366   0.03130   0.50266   0.0000000000
C          C       0.58238   0.03122   0.66477   0.0000000000
C          C       0.61805   0.06158   0.66400   0.0000000000
C          C       0.62604   0.09306   0.49751   0.0000000000
C          C       0.59786   0.09271   0.32474   0.0000000000
C          C       0.56244   0.06260   0.33149   0.0000000000
N          N       0.50974   0.85984   0.50772   0.0000000000
C          C       0.53790   0.85569   0.45334   0.0000000000
N          N       0.66156   0.12325   0.50134   0.0000000000
C          C       0.66633   0.15608   0.45864   0.0000000000
C          C       0.70259   0.18744   0.44560   0.0000000000
H          H       0.55699   0.97978   0.18530   0.0000000000
H          H       0.55365   0.91806   0.16345   0.0000000000
H          H       0.47266   0.87773   0.85559   0.0000000000
H          H       0.57614   0.00648   0.79399   0.0000000000
H          H       0.64062   0.06209   0.79197   0.0000000000
H          H       0.60477   0.11588   0.17369   0.0000000000
H          H       0.54039   0.06263   0.20080   0.0000000000
H          H       0.56657   0.87976   0.42717   0.0000000000
H          H       0.64261   0.16136   0.44246   0.0000000000
C          C       0.71273   0.22468   0.44343   0.0000000000
C          C       0.75150   0.24715   0.44385   0.0000000000
C          C       0.77023   0.22662   0.44215   0.0000000000
S          S       0.73982   0.17965   0.44513   0.0000000000
C          C       0.53296   0.81931   0.44274   0.0000000000
C          C       0.55992   0.80899   0.43881   0.0000000000
S          S       0.48791   0.78208   0.45012   0.0000000000
H          H       0.69225   0.23398   0.44500   0.0000000000
H          H       0.58977   0.82912   0.43716   0.0000000000
C          C       0.00122   0.51717   0.51029   0.0000000000
C          C       0.03694   0.55231   0.52227   0.0000000000
C          C       0.04278   0.58137   0.33396   0.0000000000
C          C       0.07658   0.61401   0.32626   0.0000000000
C          C       0.10547   0.61862   0.51208   0.0000000000
C          C       0.09936   0.59016   0.70908   0.0000000000
C          C       0.06557   0.55760   0.71264   0.0000000000
H          H       0.06081   0.53460   0.85741   0.0000000000
C          C       0.96870   0.52236   0.50266   0.0000000000
C          C       0.96878   0.55116   0.66477   0.0000000000
C          C       0.93842   0.55647   0.66400   0.0000000000
C          C       0.90694   0.53298   0.49751   0.0000000000
C          C       0.90729   0.50515   0.32474   0.0000000000
C          C       0.93740   0.49984   0.33149   0.0000000000
N          N       0.14016   0.64990   0.50772   0.0000000000
C          C       0.14431   0.68221   0.45334   0.0000000000
N          N       0.87675   0.53831   0.50134   0.0000000000
C          C       0.84392   0.51025   0.45864   0.0000000000
C          C       0.81256   0.51515   0.44560   0.0000000000
H          H       0.02022   0.57721   0.18530   0.0000000000
H          H       0.08194   0.63559   0.16345   0.0000000000
H          H       0.12227   0.59493   0.85559   0.0000000000
H          H       0.99352   0.56966   0.79399   0.0000000000
H          H       0.93791   0.57853   0.79197   0.0000000000
H          H       0.88412   0.48889   0.17369   0.0000000000
H          H       0.93737   0.47776   0.20080   0.0000000000
H          H       0.12024   0.68681   0.42717   0.0000000000
H          H       0.83864   0.48125   0.44246   0.0000000000
C          C       0.77532   0.48805   0.44343   0.0000000000
C          C       0.75285   0.50435   0.44385   0.0000000000
C          C       0.77338   0.54361   0.44215   0.0000000000
S          S       0.82035   0.56017   0.44513   0.0000000000
C          C       0.18069   0.71365   0.44274   0.0000000000
C          C       0.19101   0.75093   0.43881   0.0000000000
S          S       0.21792   0.70583   0.45012   0.0000000000
H          H       0.76602   0.45827   0.44500   0.0000000000
H          H       0.17088   0.76065   0.43716   0.0000000000
C          C       0.51717   0.51595   0.51029   0.0000000000
C          C       0.55231   0.51537   0.52227   0.0000000000
C          C       0.58137   0.53859   0.33396   0.0000000000
C          C       0.61401   0.53743   0.32626   0.0000000000
C          C       0.61862   0.51315   0.51208   0.0000000000
C          C       0.59016   0.49080   0.70908   0.0000000000
C          C       0.55760   0.49203   0.71264   0.0000000000
H          H       0.53460   0.47379   0.85741   0.0000000000
C          C       0.52236   0.55366   0.50266   0.0000000000
C          C       0.55116   0.58238   0.66477   0.0000000000
C          C       0.55647   0.61805   0.66400   0.0000000000
C          C       0.53298   0.62604   0.49751   0.0000000000
C          C       0.50515   0.59786   0.32474   0.0000000000
C          C       0.49984   0.56244   0.33149   0.0000000000
N          N       0.64990   0.50974   0.50772   0.0000000000
C          C       0.68221   0.53790   0.45334   0.0000000000
N          N       0.53831   0.66156   0.50134   0.0000000000
C          C       0.51025   0.66633   0.45864   0.0000000000
C          C       0.51515   0.70259   0.44560   0.0000000000
H          H       0.57721   0.55699   0.18530   0.0000000000
H          H       0.63559   0.55365   0.16345   0.0000000000
H          H       0.59493   0.47266   0.85559   0.0000000000
H          H       0.56966   0.57614   0.79399   0.0000000000
H          H       0.57853   0.64062   0.79197   0.0000000000
H          H       0.48889   0.60477   0.17369   0.0000000000
H          H       0.47776   0.54039   0.20080   0.0000000000
H          H       0.68681   0.56657   0.42717   0.0000000000
H          H       0.48125   0.64261   0.44246   0.0000000000
C          C       0.48805   0.71273   0.44343   0.0000000000
C          C       0.50435   0.75150   0.44385   0.0000000000
C          C       0.54361   0.77023   0.44215   0.0000000000
S          S       0.56017   0.73982   0.44513   0.0000000000
C          C       0.71365   0.53296   0.44274   0.0000000000
C          C       0.75093   0.55992   0.43881   0.0000000000
S          S       0.70583   0.48791   0.45012   0.0000000000
H          H       0.45827   0.69225   0.44500   0.0000000000
H          H       0.76065   0.58977   0.43716   0.0000000000
C          C       0.48405   0.00122   0.51029   0.0000000000
C          C       0.48463   0.03694   0.52227   0.0000000000
C          C       0.46141   0.04278   0.33396   0.0000000000
C          C       0.46257   0.07658   0.32626   0.0000000000
C          C       0.48685   0.10547   0.51208   0.0000000000
C          C       0.50920   0.09936   0.70908   0.0000000000
C          C       0.50797   0.06557   0.71264   0.0000000000
H          H       0.52621   0.06081   0.85741   0.0000000000
C          C       0.44634   0.96870   0.50266   0.0000000000
C          C       0.41762   0.96878   0.66477   0.0000000000
C          C       0.38195   0.93842   0.66400   0.0000000000
C          C       0.37396   0.90694   0.49751   0.0000000000
C          C       0.40214   0.90729   0.32474   0.0000000000
C          C       0.43756   0.93740   0.33149   0.0000000000
N          N       0.49026   0.14016   0.50772   0.0000000000
C          C       0.46210   0.14431   0.45334   0.0000000000
N          N       0.33844   0.87675   0.50134   0.0000000000
C          C       0.33367   0.84392   0.45864   0.0000000000
C          C       0.29741   0.81256   0.44560   0.0000000000
H          H       0.44301   0.02022   0.18530   0.0000000000
H          H       0.44635   0.08194   0.16345   0.0000000000
H          H       0.52734   0.12227   0.85559   0.0000000000
H          H       0.42386   0.99352   0.79399   0.0000000000
H          H       0.35938   0.93791   0.79197   0.0000000000
H          H       0.39523   0.88412   0.17369   0.0000000000
H          H       0.45961   0.93737   0.20080   0.0000000000
H          H       0.43343   0.12024   0.42717   0.0000000000
H          H       0.35739   0.83864   0.44246   0.0000000000
C          C       0.28727   0.77532   0.44343   0.0000000000
C          C       0.24850   0.75285   0.44385   0.0000000000
C          C       0.22977   0.77338   0.44215   0.0000000000
S          S       0.26018   0.82035   0.44513   0.0000000000
C          C       0.46704   0.18069   0.44274   0.0000000000
C          C       0.44008   0.19101   0.43881   0.0000000000
S          S       0.51209   0.21792   0.45012   0.0000000000
H          H       0.30775   0.76602   0.44500   0.0000000000
H          H       0.41023   0.17088   0.43716   0.0000000000
C          C       0.99878   0.48283   0.51029   0.0000000000
C          C       0.96306   0.44769   0.52227   0.0000000000
C          C       0.95722   0.41863   0.33396   0.0000000000
C          C       0.92342   0.38599   0.32626   0.0000000000
C          C       0.89453   0.38138   0.51208   0.0000000000
C          C       0.90064   0.40984   0.70908   0.0000000000
C          C       0.93443   0.44240   0.71264   0.0000000000
H          H       0.93919   0.46540   0.85741   0.0000000000
C          C       0.03130   0.47764   0.50266   0.0000000000
C          C       0.03122   0.44884   0.66477   0.0000000000
C          C       0.06158   0.44353   0.66400   0.0000000000
C          C       0.09306   0.46702   0.49751   0.0000000000
C          C       0.09271   0.49485   0.32474   0.0000000000
C          C       0.06260   0.50016   0.33149   0.0000000000
N          N       0.85984   0.35010   0.50772   0.0000000000
C          C       0.85569   0.31779   0.45334   0.0000000000
N          N       0.12325   0.46169   0.50134   0.0000000000
C          C       0.15608   0.48975   0.45864   0.0000000000
C          C       0.18744   0.48485   0.44560   0.0000000000
H          H       0.97978   0.42279   0.18530   0.0000000000
H          H       0.91806   0.36441   0.16345   0.0000000000
H          H       0.87773   0.40507   0.85559   0.0000000000
H          H       0.00648   0.43034   0.79399   0.0000000000
H          H       0.06209   0.42147   0.79197   0.0000000000
H          H       0.11588   0.51111   0.17369   0.0000000000
H          H       0.06263   0.52224   0.20080   0.0000000000
H          H       0.87976   0.31319   0.42717   0.0000000000
H          H       0.16136   0.51875   0.44246   0.0000000000
C          C       0.22468   0.51195   0.44343   0.0000000000
C          C       0.24715   0.49565   0.44385   0.0000000000
C          C       0.22662   0.45639   0.44215   0.0000000000
S          S       0.17965   0.43983   0.44513   0.0000000000
C          C       0.81931   0.28635   0.44274   0.0000000000
C          C       0.80899   0.24907   0.43881   0.0000000000
S          S       0.78208   0.29417   0.45012   0.0000000000
H          H       0.23398   0.54173   0.44500   0.0000000000
H          H       0.82912   0.23935   0.43716   0.0000000000
