data_crystal
 
_cell_length_a    25.80400
_cell_length_b    6.74700
_cell_length_c    26.23240
_cell_angle_alpha 90.00000
_cell_angle_beta  101.73660
_cell_angle_gamma 90.00000
 
_symmetry_space_group_name_Hall 'P 1'
_symmetry_space_group_name_H-M  'P 1'
 
loop_
_symmetry_equiv_pos_as_xyz
 'x,y,z' 
 
loop_
_atom_site_label
_atom_site_type_symbol
_atom_site_fract_x
_atom_site_fract_y
_atom_site_fract_z
_atom_site_charge
C          C       0.09157   0.46809   0.07875   0.0000000000
C          C       0.57755   0.35690   0.54870   0.0000000000
C          C       0.01701   0.54225   0.98860   0.0000000000
C          C       0.53262   0.72603   0.51727   0.0000000000
C          C       0.58571   0.68622   0.51447   0.0000000000
C          C       0.00227   0.56230   0.03757   0.0000000000
C          C       0.52436   0.39756   0.55139   0.0000000000
C          C       0.10640   0.44610   0.02974   0.0000000000
C          C       0.44712   0.62700   0.53761   0.0000000000
C          C       0.07640   0.43832   0.93198   0.0000000000
C          C       0.66270   0.45597   0.52807   0.0000000000
C          C       0.03009   0.56931   0.13483   0.0000000000
C          C       0.60937   0.50051   0.52995   0.0000000000
C          C       0.04056   0.53020   0.08445   0.0000000000
C          C       0.50064   0.58308   0.53595   0.0000000000
C          C       0.06795   0.47879   0.98290   0.0000000000
N          N       0.69890   0.57985   0.51389   0.0000000000
N          N       0.05041   0.46409   0.17893   0.0000000000
N          N       0.41282   0.49679   0.55276   0.0000000000
N          N       0.06434   0.56459   0.89050   0.0000000000
N          N       0.10873   0.51797   0.48185   0.0000000000
N          N       0.00300   0.52546   0.58667   0.0000000000
C          C       0.09526   0.51470   0.42877   0.0000000000
C          C       0.94959   0.53004   0.56923   0.0000000000
C          C       0.01650   0.53027   0.63974   0.0000000000
C          C       0.16214   0.51973   0.49932   0.0000000000
C          C       0.14290   0.51539   0.41149   0.0000000000
C          C       0.92821   0.53961   0.61408   0.0000000000
C          C       0.96896   0.53820   0.65711   0.0000000000
C          C       0.18360   0.51712   0.45448   0.0000000000
H          H       0.14775   0.51433   0.37380   0.0000000000
H          H       0.88904   0.54667   0.61566   0.0000000000
H          H       0.96442   0.54295   0.69491   0.0000000000
H          H       0.22278   0.51608   0.45280   0.0000000000
N          N       0.99242   0.52123   0.46685   0.0000000000
N          N       0.11934   0.52260   0.60166   0.0000000000
C          C       0.99746   0.51315   0.41611   0.0000000000
C          C       0.94088   0.52006   0.47167   0.0000000000
C          C       0.11433   0.52507   0.65242   0.0000000000
C          C       0.17088   0.52282   0.59690   0.0000000000
C          C       0.94604   0.50570   0.38677   0.0000000000
C          C       0.91147   0.51013   0.42074   0.0000000000
C          C       0.16575   0.52613   0.68186   0.0000000000
C          C       0.20032   0.52488   0.64789   0.0000000000
H          H       0.93538   0.49780   0.34712   0.0000000000
H          H       0.87115   0.50591   0.40987   0.0000000000
H          H       0.17643   0.52820   0.72155   0.0000000000
H          H       0.24064   0.52567   0.65887   0.0000000000
C          C       0.04430   0.51076   0.39525   0.0000000000
C          C       0.91893   0.52644   0.51737   0.0000000000
C          C       0.06747   0.52855   0.67317   0.0000000000
C          C       0.19279   0.52209   0.55119   0.0000000000
C          C       0.04139   0.50141   0.34000   0.0000000000
C          C       0.86272   0.53099   0.51196   0.0000000000
C          C       0.07054   0.53383   0.72842   0.0000000000
C          C       0.24896   0.52244   0.55647   0.0000000000
C          C       0.05280   0.32275   0.31595   0.0000000000
C          C       0.03025   0.66996   0.30714   0.0000000000
C          C       0.83414   0.70988   0.50037   0.0000000000
C          C       0.83405   0.36042   0.52137   0.0000000000
C          C       0.07517   0.35893   0.75921   0.0000000000
C          C       0.06621   0.71512   0.75470   0.0000000000
C          C       0.27656   0.69812   0.54913   0.0000000000
C          C       0.27867   0.34502   0.56565   0.0000000000
H          H       0.06033   0.19622   0.33779   0.0000000000
H          H       0.02148   0.80233   0.32260   0.0000000000
H          H       0.85339   0.83574   0.49272   0.0000000000
H          H       0.85319   0.22744   0.52922   0.0000000000
H          H       0.07886   0.22452   0.74210   0.0000000000
H          H       0.06354   0.84587   0.73447   0.0000000000
H          H       0.25658   0.82993   0.54328   0.0000000000
H          H       0.26027   0.21573   0.57196   0.0000000000
C          C       0.05521   0.31506   0.26245   0.0000000000
C          C       0.03196   0.66104   0.25332   0.0000000000
C          C       0.77935   0.71929   0.50032   0.0000000000
C          C       0.77933   0.37089   0.52155   0.0000000000
C          C       0.07406   0.36495   0.81317   0.0000000000
C          C       0.06444   0.71996   0.80840   0.0000000000
C          C       0.33118   0.69423   0.54832   0.0000000000
C          C       0.33338   0.34217   0.56521   0.0000000000
H          H       0.06438   0.18316   0.24699   0.0000000000
H          H       0.02409   0.78635   0.23124   0.0000000000
H          H       0.75998   0.85150   0.49231   0.0000000000
H          H       0.76028   0.24523   0.52929   0.0000000000
H          H       0.07733   0.23525   0.83367   0.0000000000
H          H       0.06048   0.85388   0.82553   0.0000000000
H          H       0.34926   0.82379   0.54222   0.0000000000
H          H       0.35354   0.21113   0.57165   0.0000000000
C          C       0.04531   0.48380   0.22985   0.0000000000
C          C       0.75100   0.55188   0.51201   0.0000000000
C          C       0.06793   0.54576   0.83906   0.0000000000
C          C       0.36059   0.51536   0.55533   0.0000000000
H          H       0.11976   0.44266   0.11153   0.0000000000
H          H       0.59269   0.22035   0.56114   0.0000000000
H          H       0.60671   0.79524   0.50029   0.0000000000
H          H       0.43295   0.76402   0.52465   0.0000000000
O          O       0.94990   0.60958   0.03281   0.0000000000
H          H       0.09183   0.30241   0.92629   0.0000000000
C          C       0.91275   0.55606   0.06074   0.0000000000
O          O       0.92578   0.43772   0.09800   0.0000000000
H          H       0.98872   0.56984   0.95602   0.0000000000
H          H       0.51730   0.86212   0.50507   0.0000000000
H          H       0.50278   0.29030   0.56533   0.0000000000
O          O       0.15929   0.40310   0.03666   0.0000000000
H          H       0.00432   0.68186   0.13778   0.0000000000
C          C       0.19721   0.38728   1.00728   0.0000000000
O          O       0.18542   0.40737   0.95892   0.0000000000
C          C       0.63740   0.35175   0.19310   0.0000000000
C          C       0.58306   0.39646   0.18057   0.0000000000
C          C       0.56231   0.51080   0.13642   0.0000000000
C          C       0.59579   0.57815   0.10361   0.0000000000
C          C       0.65048   0.53241   0.11494   0.0000000000
C          C       0.67047   0.41914   0.16018   0.0000000000
N          N       0.68169   0.59875   0.08275   0.0000000000
N          N       0.73279   0.56994   0.09055   0.0000000000
C          C       0.75175   0.74423   0.01540   0.0000000000
C          C       0.76728   0.62989   0.06104   0.0000000000
C          C       0.78909   0.79857   0.98552   0.0000000000
C          C       0.84225   0.73824   0.00094   0.0000000000
C          C       0.85946   0.62249   0.04654   0.0000000000
C          C       0.82091   0.57210   0.07629   0.0000000000
H          H       0.65256   0.26962   0.22551   0.0000000000
H          H       0.55842   0.34574   0.20375   0.0000000000
H          H       0.52272   0.54464   0.12831   0.0000000000
H          H       0.77752   0.88187   0.95249   0.0000000000
H          H       0.86852   0.77937   0.97827   0.0000000000
H          H       0.83169   0.48939   0.10955   0.0000000000
C          C       0.51801   0.42891   0.92399   0.0000000000
C          C       0.56678   0.34617   0.94952   0.0000000000
C          C       0.56987   0.23840   0.99597   0.0000000000
C          C       0.52443   0.21648   0.01701   0.0000000000
C          C       0.47565   0.30284   0.99337   0.0000000000
C          C       0.47280   0.40728   0.94605   0.0000000000
N          N       0.43421   0.28588   0.01756   0.0000000000
N          N       0.38462   0.33202   1.00009   0.0000000000
C          C       0.35868   0.30491   0.08347   0.0000000000
C          C       0.34636   0.32646   0.02872   0.0000000000
C          C       0.31844   0.30541   0.11235   0.0000000000
C          C       0.26537   0.32980   0.08686   0.0000000000
C          C       0.25107   0.35530   0.03201   0.0000000000
C          C       0.29272   0.35144   1.00372   0.0000000000
H          H       0.51580   0.50499   0.88959   0.0000000000
H          H       0.59978   0.36308   0.93379   0.0000000000
H          H       0.60505   0.17562   1.01391   0.0000000000
H          H       0.32783   0.28916   0.15193   0.0000000000
H          H       0.23702   0.32994   0.10909   0.0000000000
H          H       0.28423   0.36877   0.96398   0.0000000000
H          H       0.43755   0.46862   0.92752   0.0000000000
H          H       0.71303   0.78761   1.00401   0.0000000000
H          H       0.70976   0.38517   0.16923   0.0000000000
H          H       0.39749   0.29062   0.10249   0.0000000000
H          H       0.07995   0.51797   0.50807   0.0000000000
H          H       0.03208   0.52546   0.56078   0.0000000000
H          H       0.57970   0.66161   1.07186   0.0000000000
H          H       0.52960   0.13870   1.05092   0.0000000000
