data_crystal
 
_cell_length_a    25.88230
_cell_length_b    25.80330
_cell_length_c    13.48760
_cell_angle_alpha 90.00000
_cell_angle_beta  90.00000
_cell_angle_gamma 100.41000
 
_symmetry_space_group_name_Hall 'P 1'
_symmetry_space_group_name_H-M  'P 1'
 
loop_
_symmetry_equiv_pos_as_xyz
 'x,y,z' 
 
loop_
_atom_site_label
_atom_site_type_symbol
_atom_site_fract_x
_atom_site_fract_y
_atom_site_fract_z
_atom_site_charge
C          C       0.54962   0.53229   0.25000   0.0000000000
C          C       0.03653   0.04640   0.25000   0.0000000000
C          C       0.45038   0.46771   0.25000   0.0000000000
C          C       0.96347   0.95360   0.25000   0.0000000000
C          C       0.45478   0.52255   0.25000   0.0000000000
C          C       0.01674   0.95076   0.25000   0.0000000000
C          C       0.54522   0.47745   0.25000   0.0000000000
C          C       0.98326   0.04924   0.25000   0.0000000000
C          C       0.49002   0.38673   0.25000   0.0000000000
C          C       0.88699   0.99750   0.25000   0.0000000000
C          C       0.50998   0.61327   0.25000   0.0000000000
C          C       0.11301   0.00250   0.25000   0.0000000000
C          C       0.50447   0.55530   0.25000   0.0000000000
C          C       0.05478   0.99826   0.25000   0.0000000000
C          C       0.49553   0.44470   0.25000   0.0000000000
C          C       0.94522   0.00174   0.25000   0.0000000000
N          N       0.46897   0.63574   0.25000   0.0000000000
N          N       0.13628   0.96211   0.25000   0.0000000000
N          N       0.53103   0.36426   0.25000   0.0000000000
N          N       0.86372   0.03789   0.25000   0.0000000000
N          N       0.44157   0.05728   0.25000   0.0000000000
N          N       0.55844   0.94272   0.25000   0.0000000000
C          C       0.38938   0.04125   0.25000   0.0000000000
C          C       0.54342   0.89025   0.25000   0.0000000000
C          C       0.61062   0.95875   0.25000   0.0000000000
C          C       0.45658   0.10975   0.25000   0.0000000000
C          C       0.36823   0.08710   0.25000   0.0000000000
C          C       0.58970   0.87002   0.25000   0.0000000000
C          C       0.63177   0.91290   0.25000   0.0000000000
C          C       0.41030   0.12998   0.25000   0.0000000000
H          H       0.32694   0.08943   0.25000   0.0000000000
H          H       0.59285   0.82880   0.25000   0.0000000000
H          H       0.67306   0.91057   0.25000   0.0000000000
H          H       0.40715   0.17120   0.25000   0.0000000000
N          N       0.43328   0.93200   0.25000   0.0000000000
N          N       0.56672   0.06800   0.25000   0.0000000000
C          C       0.37983   0.93736   0.25000   0.0000000000
C          C       0.43969   0.87868   0.25000   0.0000000000
C          C       0.62017   0.06264   0.25000   0.0000000000
C          C       0.56031   0.12132   0.25000   0.0000000000
C          C       0.35104   0.88250   0.25000   0.0000000000
C          C       0.38538   0.84885   0.25000   0.0000000000
C          C       0.64896   0.11750   0.25000   0.0000000000
C          C       0.61462   0.15115   0.25000   0.0000000000
H          H       0.30877   0.87056   0.25000   0.0000000000
H          H       0.37426   0.80637   0.25000   0.0000000000
H          H       0.69123   0.12944   0.25000   0.0000000000
H          H       0.62574   0.19363   0.25000   0.0000000000
C          C       0.35953   0.98374   0.25000   0.0000000000
C          C       0.48648   0.85929   0.25000   0.0000000000
C          C       0.64047   0.01626   0.25000   0.0000000000
C          C       0.51352   0.14071   0.25000   0.0000000000
C          C       0.30184   0.97792   0.25000   0.0000000000
C          C       0.48178   0.80153   0.25000   0.0000000000
C          C       0.69816   0.02208   0.25000   0.0000000000
C          C       0.51822   0.19847   0.25000   0.0000000000
C          C       0.27431   0.97528   0.16009   0.0000000000
C          C       0.47967   0.77397   0.33991   0.0000000000
C          C       0.72569   0.02472   0.16009   0.0000000000
C          C       0.52033   0.22603   0.33991   0.0000000000
C          C       0.72569   0.02472   0.33991   0.0000000000
C          C       0.52033   0.22603   0.16009   0.0000000000
C          C       0.27431   0.97528   0.33991   0.0000000000
C          C       0.47967   0.77397   0.16009   0.0000000000
H          H       0.29535   0.97723   0.09043   0.0000000000
H          H       0.48124   0.79503   0.40956   0.0000000000
H          H       0.70465   0.02277   0.09043   0.0000000000
H          H       0.51876   0.20497   0.40956   0.0000000000
H          H       0.70465   0.02277   0.40957   0.0000000000
H          H       0.51876   0.20497   0.09044   0.0000000000
H          H       0.29535   0.97723   0.40957   0.0000000000
H          H       0.48124   0.79503   0.09044   0.0000000000
C          C       0.21954   0.96999   0.16026   0.0000000000
C          C       0.47539   0.71912   0.33975   0.0000000000
C          C       0.78046   0.03001   0.16026   0.0000000000
C          C       0.52461   0.28088   0.33975   0.0000000000
C          C       0.78046   0.03001   0.33974   0.0000000000
C          C       0.52461   0.28088   0.16026   0.0000000000
C          C       0.21954   0.96999   0.33974   0.0000000000
C          C       0.47539   0.71912   0.16026   0.0000000000
H          H       0.19808   0.96773   0.09117   0.0000000000
H          H       0.47355   0.69767   0.40887   0.0000000000
H          H       0.80192   0.03227   0.09117   0.0000000000
H          H       0.52645   0.30233   0.40887   0.0000000000
H          H       0.80192   0.03227   0.40884   0.0000000000
H          H       0.52645   0.30233   0.09113   0.0000000000
H          H       0.19808   0.96773   0.40884   0.0000000000
H          H       0.47355   0.69767   0.09113   0.0000000000
C          C       0.19216   0.96759   0.25000   0.0000000000
C          C       0.47347   0.69169   0.25000   0.0000000000
C          C       0.80784   0.03241   0.25000   0.0000000000
C          C       0.52653   0.30831   0.25000   0.0000000000
H          H       0.58832   0.55676   0.25000   0.0000000000
H          H       0.41940   0.53948   0.25000   0.0000000000
H          H       0.45093   0.36283   0.25000   0.0000000000
H          H       0.06399   0.08343   0.25000   0.0000000000
O          O       0.02775   0.89969   0.25000   0.0000000000
H          H       0.86298   0.95833   0.25000   0.0000000000
H          H       0.06582   0.89638   0.25000   0.0000000000
H          H       0.46212   0.96139   0.25000   0.0000000000
H          H       0.41168   0.44324   0.25000   0.0000000000
H          H       0.58060   0.46052   0.25000   0.0000000000
H          H       0.54907   0.63717   0.25000   0.0000000000
H          H       0.93602   0.91657   0.25000   0.0000000000
O          O       0.97226   0.10031   0.25000   0.0000000000
H          H       0.13702   0.04167   0.25000   0.0000000000
H          H       0.93418   0.10362   0.25000   0.0000000000
H          H       0.53788   0.03861   0.25000   0.0000000000
C          C       0.54962   0.53229   0.75000   0.0000000000
C          C       0.03653   0.04640   0.75000   0.0000000000
C          C       0.45038   0.46771   0.75000   0.0000000000
C          C       0.96347   0.95360   0.75000   0.0000000000
C          C       0.45478   0.52255   0.75000   0.0000000000
C          C       0.01674   0.95076   0.75000   0.0000000000
C          C       0.54522   0.47745   0.75000   0.0000000000
C          C       0.98326   0.04924   0.75000   0.0000000000
C          C       0.49002   0.38673   0.75000   0.0000000000
C          C       0.88699   0.99750   0.75000   0.0000000000
C          C       0.50998   0.61327   0.75000   0.0000000000
C          C       0.11301   0.00250   0.75000   0.0000000000
C          C       0.50447   0.55530   0.75000   0.0000000000
C          C       0.05478   0.99826   0.75000   0.0000000000
C          C       0.49553   0.44470   0.75000   0.0000000000
C          C       0.94522   0.00174   0.75000   0.0000000000
N          N       0.46897   0.63574   0.75000   0.0000000000
N          N       0.13628   0.96211   0.75000   0.0000000000
N          N       0.53103   0.36426   0.75000   0.0000000000
N          N       0.86372   0.03789   0.75000   0.0000000000
N          N       0.44157   0.05728   0.75000   0.0000000000
N          N       0.55844   0.94272   0.75000   0.0000000000
C          C       0.38938   0.04125   0.75000   0.0000000000
C          C       0.54342   0.89025   0.75000   0.0000000000
C          C       0.61062   0.95875   0.75000   0.0000000000
C          C       0.45658   0.10975   0.75000   0.0000000000
C          C       0.36823   0.08710   0.75000   0.0000000000
C          C       0.58970   0.87002   0.75000   0.0000000000
C          C       0.63177   0.91290   0.75000   0.0000000000
C          C       0.41030   0.12998   0.75000   0.0000000000
H          H       0.32694   0.08943   0.75000   0.0000000000
H          H       0.59285   0.82880   0.75000   0.0000000000
H          H       0.67306   0.91057   0.75000   0.0000000000
H          H       0.40715   0.17120   0.75000   0.0000000000
N          N       0.43328   0.93200   0.75000   0.0000000000
N          N       0.56672   0.06800   0.75000   0.0000000000
C          C       0.37983   0.93736   0.75000   0.0000000000
C          C       0.43969   0.87868   0.75000   0.0000000000
C          C       0.62017   0.06264   0.75000   0.0000000000
C          C       0.56031   0.12132   0.75000   0.0000000000
C          C       0.35104   0.88250   0.75000   0.0000000000
C          C       0.38538   0.84885   0.75000   0.0000000000
C          C       0.64896   0.11750   0.75000   0.0000000000
C          C       0.61462   0.15115   0.75000   0.0000000000
H          H       0.30877   0.87056   0.75000   0.0000000000
H          H       0.37426   0.80637   0.75000   0.0000000000
H          H       0.69123   0.12944   0.75000   0.0000000000
H          H       0.62574   0.19363   0.75000   0.0000000000
C          C       0.35953   0.98374   0.75000   0.0000000000
C          C       0.48648   0.85929   0.75000   0.0000000000
C          C       0.64047   0.01626   0.75000   0.0000000000
C          C       0.51352   0.14071   0.75000   0.0000000000
C          C       0.30184   0.97792   0.75000   0.0000000000
C          C       0.48178   0.80153   0.75000   0.0000000000
C          C       0.69816   0.02208   0.75000   0.0000000000
C          C       0.51822   0.19847   0.75000   0.0000000000
C          C       0.27431   0.97528   0.66009   0.0000000000
C          C       0.47967   0.77397   0.83991   0.0000000000
C          C       0.72569   0.02472   0.66009   0.0000000000
C          C       0.52033   0.22603   0.83991   0.0000000000
C          C       0.72569   0.02472   0.83991   0.0000000000
C          C       0.52033   0.22603   0.66009   0.0000000000
C          C       0.27431   0.97528   0.83991   0.0000000000
C          C       0.47967   0.77397   0.66009   0.0000000000
H          H       0.29535   0.97723   0.59043   0.0000000000
H          H       0.48124   0.79503   0.90956   0.0000000000
H          H       0.70465   0.02277   0.59043   0.0000000000
H          H       0.51876   0.20497   0.90956   0.0000000000
H          H       0.70465   0.02277   0.90957   0.0000000000
H          H       0.51876   0.20497   0.59044   0.0000000000
H          H       0.29535   0.97723   0.90957   0.0000000000
H          H       0.48124   0.79503   0.59044   0.0000000000
C          C       0.21954   0.96999   0.66026   0.0000000000
C          C       0.47539   0.71912   0.83975   0.0000000000
C          C       0.78046   0.03001   0.66026   0.0000000000
C          C       0.52461   0.28088   0.83975   0.0000000000
C          C       0.78046   0.03001   0.83974   0.0000000000
C          C       0.52461   0.28088   0.66026   0.0000000000
C          C       0.21954   0.96999   0.83974   0.0000000000
C          C       0.47539   0.71912   0.66026   0.0000000000
H          H       0.19808   0.96773   0.59117   0.0000000000
H          H       0.47355   0.69767   0.90887   0.0000000000
H          H       0.80192   0.03227   0.59117   0.0000000000
H          H       0.52645   0.30233   0.90887   0.0000000000
H          H       0.80192   0.03227   0.90884   0.0000000000
H          H       0.52645   0.30233   0.59113   0.0000000000
H          H       0.19808   0.96773   0.90884   0.0000000000
H          H       0.47355   0.69767   0.59113   0.0000000000
C          C       0.19216   0.96759   0.75000   0.0000000000
C          C       0.47347   0.69169   0.75000   0.0000000000
C          C       0.80784   0.03241   0.75000   0.0000000000
C          C       0.52653   0.30831   0.75000   0.0000000000
H          H       0.58832   0.55676   0.75000   0.0000000000
H          H       0.41940   0.53948   0.75000   0.0000000000
H          H       0.45093   0.36283   0.75000   0.0000000000
H          H       0.06399   0.08343   0.75000   0.0000000000
O          O       0.02775   0.89969   0.75000   0.0000000000
H          H       0.86298   0.95833   0.75000   0.0000000000
H          H       0.06582   0.89638   0.75000   0.0000000000
H          H       0.46212   0.96139   0.75000   0.0000000000
H          H       0.41168   0.44324   0.75000   0.0000000000
H          H       0.58060   0.46052   0.75000   0.0000000000
H          H       0.54907   0.63717   0.75000   0.0000000000
H          H       0.93602   0.91657   0.75000   0.0000000000
O          O       0.97226   0.10031   0.75000   0.0000000000
H          H       0.13702   0.04167   0.75000   0.0000000000
H          H       0.93418   0.10362   0.75000   0.0000000000
H          H       0.53788   0.03861   0.75000   0.0000000000
