data_crystal

_cell_length_a    20.49000
_cell_length_b    20.49000
_cell_length_c    32.20000
_cell_angle_alpha 90.00000
_cell_angle_beta  90.00000
_cell_angle_gamma 90.00000

_space_group_name_Hall 'P 1'
_space_group_name_H-M_alt  'P 1'

loop_
_symmetry_equiv_pos_as_xyz
'x,y,z' 

loop_
_atom_site_label
_atom_site_type_symbol
_atom_site_fract_x
_atom_site_fract_y
_atom_site_fract_z
C          C       0.34761   0.69707   0.30115 
C          C       0.29434   0.71643   0.27385 
O          O       0.36507   0.64090   0.30562 
H          H       0.43986   0.85703   0.35718 
C          C       0.84761   0.19707   0.80115 
C          C       0.79434   0.21643   0.77385 
O          O       0.86507   0.14090   0.80562 
H          H       0.93986   0.35703   0.85718 
C          C       0.15239   0.30293   0.80115 
C          C       0.20566   0.28357   0.77385 
O          O       0.13493   0.35910   0.80562 
H          H       0.06014   0.14297   0.85718 
C          C       0.65239   0.80293   0.30115 
C          C       0.70566   0.78357   0.27385 
O          O       0.63493   0.85910   0.30562 
H          H       0.56014   0.64297   0.35718 
C          C       0.55293   0.09761   0.55115 
C          C       0.53357   0.04434   0.52385 
O          O       0.60910   0.11507   0.55562 
H          H       0.39297   0.18986   0.60718 
C          C       0.05293   0.59761   0.05115 
C          C       0.03357   0.54434   0.02385 
O          O       0.10910   0.61507   0.05562 
H          H       0.89297   0.68986   0.10718 
C          C       0.94707   0.90239   0.05115 
C          C       0.96643   0.95566   0.02385 
O          O       0.89090   0.88493   0.05562 
H          H       0.10703   0.81014   0.10718 
C          C       0.44707   0.40239   0.55115 
C          C       0.46643   0.45566   0.52385 
O          O       0.39090   0.38493   0.55562 
H          H       0.60703   0.31014   0.60718 
C          C       0.15239   0.69707   0.19885 
C          C       0.20566   0.71643   0.22615 
O          O       0.13493   0.64090   0.19438 
H          H       0.06014   0.85703   0.14282 
C          C       0.65239   0.19707   0.69885 
C          C       0.70566   0.21643   0.72615 
O          O       0.63493   0.14090   0.69438 
H          H       0.56014   0.35703   0.64282 
C          C       0.34761   0.30293   0.69885 
C          C       0.29434   0.28357   0.72615 
O          O       0.36507   0.35910   0.69438 
H          H       0.43986   0.14297   0.64282 
C          C       0.84761   0.80293   0.19885 
C          C       0.79434   0.78357   0.22615 
O          O       0.86507   0.85910   0.19438 
H          H       0.93986   0.64297   0.14282 
C          C       0.94707   0.09761   0.94885 
C          C       0.96643   0.04434   0.97615 
O          O       0.89090   0.11507   0.94438 
H          H       0.10703   0.18986   0.89282 
C          C       0.44707   0.59761   0.44885 
C          C       0.46643   0.54434   0.47615 
O          O       0.39090   0.61507   0.44438 
H          H       0.60703   0.68986   0.39282 
C          C       0.55293   0.90239   0.44885 
C          C       0.53357   0.95566   0.47615 
O          O       0.60910   0.88493   0.44438 
H          H       0.39297   0.81014   0.39282 
C          C       0.05293   0.40239   0.94885 
C          C       0.03357   0.45566   0.97615 
O          O       0.10910   0.38493   0.94438 
H          H       0.89297   0.31014   0.89282 
C          C       0.65239   0.30293   0.69885 
C          C       0.70566   0.28357   0.72615 
O          O       0.63493   0.35910   0.69438 
H          H       0.56014   0.14297   0.64282 
C          C       0.15239   0.80293   0.19885 
C          C       0.20566   0.78357   0.22615 
O          O       0.13493   0.85910   0.19438 
H          H       0.06014   0.64297   0.14282 
C          C       0.84761   0.69707   0.19885 
C          C       0.79434   0.71643   0.22615 
O          O       0.86507   0.64090   0.19438 
H          H       0.93986   0.85703   0.14282 
C          C       0.34761   0.19707   0.69885 
C          C       0.29434   0.21643   0.72615 
O          O       0.36507   0.14090   0.69438 
H          H       0.43986   0.35703   0.64282 
C          C       0.44707   0.90239   0.44885 
C          C       0.46643   0.95566   0.47615 
O          O       0.39090   0.88493   0.44438 
H          H       0.60703   0.81014   0.39282 
C          C       0.94707   0.40239   0.94885 
C          C       0.96643   0.45566   0.97615 
O          O       0.89090   0.38493   0.94438 
H          H       0.10703   0.31014   0.89282 
C          C       0.05293   0.09761   0.94885 
C          C       0.03357   0.04434   0.97615 
O          O       0.10910   0.11507   0.94438 
H          H       0.89297   0.18986   0.89282 
C          C       0.55293   0.59761   0.44885 
C          C       0.53357   0.54434   0.47615 
O          O       0.60910   0.61507   0.44438 
H          H       0.39297   0.68986   0.39282 
C          C       0.84761   0.30293   0.80115 
C          C       0.79434   0.28357   0.77385 
O          O       0.86507   0.35910   0.80562 
H          H       0.93986   0.14297   0.85718 
C          C       0.34761   0.80293   0.30115 
C          C       0.29434   0.78357   0.27385 
O          O       0.36507   0.85910   0.30562 
H          H       0.43986   0.64297   0.35718 
C          C       0.65239   0.69707   0.30115 
C          C       0.70566   0.71643   0.27385 
O          O       0.63493   0.64090   0.30562 
H          H       0.56014   0.85703   0.35718 
C          C       0.15239   0.19707   0.80115 
C          C       0.20566   0.21643   0.77385 
O          O       0.13493   0.14090   0.80562 
H          H       0.06014   0.35703   0.85718 
C          C       0.05293   0.90239   0.05115 
C          C       0.03357   0.95566   0.02385 
O          O       0.10910   0.88493   0.05562 
H          H       0.89297   0.81014   0.10718 
C          C       0.55293   0.40239   0.55115 
C          C       0.53357   0.45566   0.52385 
O          O       0.60910   0.38493   0.55562 
H          H       0.39297   0.31014   0.60718 
C          C       0.44707   0.09761   0.55115 
C          C       0.46643   0.04434   0.52385 
O          O       0.39090   0.11507   0.55562 
H          H       0.60703   0.18986   0.60718 
C          C       0.94707   0.59761   0.05115 
C          C       0.96643   0.54434   0.02385 
O          O       0.89090   0.61507   0.05562 
H          H       0.10703   0.68986   0.10718 
C          C       0.43751   0.75000   0.34610 
N          N       0.37825   0.75000   0.31893 
C          C       0.06249   0.25000   0.84610 
N          N       0.12175   0.25000   0.81893 
C          C       0.50000   0.18751   0.59610 
N          N       0.50000   0.12825   0.56893 
C          C       0.00000   0.68751   0.09610 
N          N       0.00000   0.62825   0.06893 
C          C       0.00000   0.81249   0.09610 
N          N       0.00000   0.87175   0.06893 
C          C       0.50000   0.31249   0.59610 
N          N       0.50000   0.37175   0.56893 
C          C       0.06249   0.75000   0.15390 
N          N       0.12175   0.75000   0.18107 
C          C       0.43751   0.25000   0.65390 
N          N       0.37825   0.25000   0.68107 
C          C       0.00000   0.18751   0.90390 
N          N       0.00000   0.12825   0.93107 
C          C       0.50000   0.68751   0.40390 
N          N       0.50000   0.62825   0.43107 
C          C       0.50000   0.81249   0.40390 
N          N       0.50000   0.87175   0.43107 
C          C       0.00000   0.31249   0.90390 
N          N       0.00000   0.37175   0.93107 
C          C       0.56249   0.25000   0.65390 
N          N       0.62175   0.25000   0.68107 
C          C       0.93751   0.75000   0.15390 
N          N       0.87825   0.75000   0.18107 
C          C       0.93751   0.25000   0.84610 
N          N       0.87825   0.25000   0.81893 
C          C       0.56249   0.75000   0.34610 
N          N       0.62175   0.75000   0.31893 
C          C       0.43902   0.81098   0.37500 
C          C       0.93902   0.31098   0.87500 
C          C       0.06098   0.18902   0.87500 
C          C       0.56098   0.68902   0.37500 
C          C       0.43902   0.18902   0.62500 
C          C       0.93902   0.68902   0.12500 
C          C       0.06098   0.81098   0.12500 
C          C       0.56098   0.31098   0.62500 
C          C       0.56098   0.18902   0.62500 
C          C       0.06098   0.68902   0.12500 
C          C       0.93902   0.81098   0.12500 
C          C       0.43902   0.31098   0.62500 
C          C       0.56098   0.81098   0.37500 
C          C       0.06098   0.31098   0.87500 
C          C       0.93902   0.18902   0.87500 
C          C       0.43902   0.68902   0.37500 
C          C       0.25000   0.82010   0.25000 
H          H       0.25000   0.87305   0.25000 
C          C       0.75000   0.32010   0.75000 
H          H       0.75000   0.37305   0.75000 
C          C       0.25000   0.17990   0.75000 
H          H       0.25000   0.12695   0.75000 
C          C       0.75000   0.67990   0.25000 
H          H       0.75000   0.62695   0.25000 
C          C       0.42990   0.00000   0.50000 
H          H       0.37695   0.00000   0.50000 
C          C       0.92990   0.50000   0.00000 
H          H       0.87695   0.50000   0.00000 
C          C       0.07010   0.00000   0.00000 
H          H       0.12305   0.00000   0.00000 
C          C       0.57010   0.50000   0.50000 
H          H       0.62305   0.50000   0.50000 
C          C       0.75000   0.17990   0.75000 
H          H       0.75000   0.12695   0.75000 
C          C       0.25000   0.67990   0.25000 
H          H       0.25000   0.62695   0.25000 
C          C       0.75000   0.82010   0.25000 
H          H       0.75000   0.87305   0.25000 
C          C       0.25000   0.32010   0.75000 
H          H       0.25000   0.37305   0.75000 
C          C       0.57010   0.00000   0.50000 
H          H       0.62305   0.00000   0.50000 
C          C       0.07010   0.50000   0.00000 
H          H       0.12305   0.50000   0.00000 
C          C       0.92990   0.00000   0.00000 
H          H       0.87695   0.00000   0.00000 
C          C       0.42990   0.50000   0.50000 
H          H       0.37695   0.50000   0.50000 
C          C       0.50000   0.75000   0.43016 
C          C       0.00000   0.25000   0.93016 
C          C       0.50000   0.25000   0.68016 
C          C       0.00000   0.75000   0.18016 
C          C       0.00000   0.75000   0.06984 
C          C       0.50000   0.25000   0.56984 
C          C       0.00000   0.25000   0.81984 
C          C       0.50000   0.75000   0.31984 
H          H       0.50000   0.73274   0.46281 
H          H       0.00000   0.23274   0.96281 
H          H       0.00000   0.26726   0.96281 
H          H       0.50000   0.76726   0.46281 
H          H       0.51726   0.25000   0.71281 
H          H       0.98274   0.75000   0.21281 
H          H       0.00000   0.73274   0.03719 
H          H       0.50000   0.23274   0.53719 
H          H       0.50000   0.26726   0.53719 
H          H       0.00000   0.76726   0.03719 
H          H       0.98274   0.25000   0.78719 
H          H       0.51726   0.75000   0.28719 
H          H       0.48274   0.75000   0.28719 
H          H       0.01726   0.25000   0.78719 
H          H       0.01726   0.75000   0.21281 
H          H       0.48274   0.25000   0.71281 
