data_crystal

_cell_length_a    30.14020
_cell_length_b    30.14020
_cell_length_c    6.80000
_cell_angle_alpha 90.00000
_cell_angle_beta  90.00000
_cell_angle_gamma 60.00000

_space_group_name_Hall 'P 1'
_space_group_name_H-M_alt  'P 1'

loop_
_symmetry_equiv_pos_as_xyz
'x,y,z' 

loop_
_atom_site_label
_atom_site_type_symbol
_atom_site_fract_x
_atom_site_fract_y
_atom_site_fract_z
N          N       0.38375   0.43181   0.73530 
C          C       0.39779   0.38208   0.73530 
C          C       0.41698   0.45023   0.73530 
C          C       0.46958   0.41781   0.73530 
C          C       0.50129   0.43774   0.73530 
C          C       0.48241   0.49027   0.73530 
C          C       0.42939   0.52224   0.73530 
C          C       0.39710   0.50263   0.73530 
H          H       0.43804   0.35217   0.73530 
H          H       0.48604   0.37611   0.73530 
H          H       0.35510   0.52788   0.73530 
H          H       0.54281   0.41099   0.73530 
H          H       0.41263   0.56395   0.73530 
N          N       0.61625   0.56820   0.73530 
C          C       0.60221   0.61792   0.73530 
C          C       0.58302   0.54977   0.73530 
C          C       0.53042   0.58219   0.73530 
C          C       0.49871   0.56227   0.73530 
C          C       0.51759   0.50973   0.73530 
C          C       0.57061   0.47776   0.73530 
C          C       0.60290   0.49738   0.73530 
H          H       0.56196   0.64783   0.73530 
H          H       0.51396   0.62389   0.73530 
H          H       0.64490   0.47212   0.73530 
H          H       0.45720   0.58901   0.73530 
H          H       0.58737   0.43605   0.73530 
N          N       0.18444   0.38375   0.73530 
C          C       0.22013   0.39779   0.73530 
C          C       0.13279   0.41698   0.73530 
C          C       0.11261   0.46958   0.73530 
C          C       0.06098   0.50129   0.73530 
C          C       0.02732   0.48241   0.73530 
C          C       0.04837   0.42939   0.73530 
C          C       0.10028   0.39710   0.73530 
H          H       0.20979   0.43804   0.73530 
H          H       0.13785   0.48604   0.73530 
H          H       0.11702   0.35510   0.73530 
H          H       0.04620   0.54281   0.73530 
H          H       0.02342   0.41263   0.73530 
N          N       0.81556   0.61625   0.73530 
C          C       0.77987   0.60221   0.73530 
C          C       0.86722   0.58302   0.73530 
C          C       0.88739   0.53042   0.73530 
C          C       0.93903   0.49871   0.73530 
C          C       0.97268   0.51759   0.73530 
C          C       0.95163   0.57061   0.73530 
C          C       0.89972   0.60290   0.73530 
H          H       0.79021   0.56196   0.73530 
H          H       0.86215   0.51396   0.73530 
H          H       0.88298   0.64490   0.73530 
H          H       0.95380   0.45720   0.73530 
H          H       0.97658   0.58737   0.73530 
N          N       0.43181   0.18444   0.73530 
C          C       0.38208   0.22013   0.73530 
C          C       0.45023   0.13279   0.73530 
C          C       0.41781   0.11261   0.73530 
C          C       0.43774   0.06098   0.73530 
C          C       0.49027   0.02732   0.73530 
C          C       0.52224   0.04837   0.73530 
C          C       0.50263   0.10028   0.73530 
H          H       0.35217   0.20979   0.73530 
H          H       0.37611   0.13785   0.73530 
H          H       0.52788   0.11702   0.73530 
H          H       0.41099   0.04620   0.73530 
H          H       0.56395   0.02342   0.73530 
N          N       0.56820   0.81556   0.73530 
C          C       0.61792   0.77987   0.73530 
C          C       0.54977   0.86722   0.73530 
C          C       0.58219   0.88739   0.73530 
C          C       0.56227   0.93903   0.73530 
C          C       0.50973   0.97268   0.73530 
C          C       0.47776   0.95163   0.73530 
C          C       0.49738   0.89972   0.73530 
H          H       0.64783   0.79021   0.73530 
H          H       0.62389   0.86215   0.73530 
H          H       0.47212   0.88298   0.73530 
H          H       0.58901   0.95380   0.73530 
H          H       0.43605   0.97658   0.73530 
C          C       0.63615   0.64359   0.73530 
C          C       0.64359   0.72026   0.73530 
C          C       0.72026   0.63615   0.73530 
C          C       0.61321   0.69711   0.73530 
C          C       0.69711   0.68969   0.73530 
C          C       0.68969   0.61321   0.73530 
H          H       0.70752   0.57180   0.73530 
H          H       0.57180   0.72069   0.73530 
H          H       0.72069   0.70752   0.73530 
C          C       0.36385   0.35641   0.73530 
C          C       0.35641   0.27974   0.73530 
C          C       0.27974   0.36385   0.73530 
C          C       0.38679   0.30290   0.73530 
C          C       0.30290   0.31032   0.73530 
C          C       0.31032   0.38679   0.73530 
H          H       0.29248   0.42821   0.73530 
H          H       0.42821   0.27931   0.73530 
H          H       0.27931   0.29248   0.73530 
N          N       0.38375   0.43181   1.23530 
C          C       0.39779   0.38208   1.23530 
C          C       0.41698   0.45023   1.23530 
C          C       0.46958   0.41781   1.23530 
C          C       0.50129   0.43774   1.23530 
C          C       0.48241   0.49027   1.23530 
C          C       0.42939   0.52224   1.23530 
C          C       0.39710   0.50263   1.23530 
H          H       0.43804   0.35217   1.23530 
H          H       0.48604   0.37611   1.23530 
H          H       0.35510   0.52788   1.23530 
H          H       0.54281   0.41099   1.23530 
H          H       0.41263   0.56395   1.23530 
N          N       0.61625   0.56820   1.23530 
C          C       0.60221   0.61792   1.23530 
C          C       0.58302   0.54977   1.23530 
C          C       0.53042   0.58219   1.23530 
C          C       0.49871   0.56227   1.23530 
C          C       0.51759   0.50973   1.23530 
C          C       0.57061   0.47776   1.23530 
C          C       0.60290   0.49738   1.23530 
H          H       0.56196   0.64783   1.23530 
H          H       0.51396   0.62389   1.23530 
H          H       0.64490   0.47212   1.23530 
H          H       0.45720   0.58901   1.23530 
H          H       0.58737   0.43605   1.23530 
N          N       0.18444   0.38375   1.23530 
C          C       0.22013   0.39779   1.23530 
C          C       0.13279   0.41698   1.23530 
C          C       0.11261   0.46958   1.23530 
C          C       0.06098   0.50129   1.23530 
C          C       0.02732   0.48241   1.23530 
C          C       0.04837   0.42939   1.23530 
C          C       0.10028   0.39710   1.23530 
H          H       0.20979   0.43804   1.23530 
H          H       0.13785   0.48604   1.23530 
H          H       0.11702   0.35510   1.23530 
H          H       0.04620   0.54281   1.23530 
H          H       0.02342   0.41263   1.23530 
N          N       0.81556   0.61625   1.23530 
C          C       0.77987   0.60221   1.23530 
C          C       0.86722   0.58302   1.23530 
C          C       0.88739   0.53042   1.23530 
C          C       0.93903   0.49871   1.23530 
C          C       0.97268   0.51759   1.23530 
C          C       0.95163   0.57061   1.23530 
C          C       0.89972   0.60290   1.23530 
H          H       0.79021   0.56196   1.23530 
H          H       0.86215   0.51396   1.23530 
H          H       0.88298   0.64490   1.23530 
H          H       0.95380   0.45720   1.23530 
H          H       0.97658   0.58737   1.23530 
N          N       0.43181   0.18444   1.23530 
C          C       0.38208   0.22013   1.23530 
C          C       0.45023   0.13279   1.23530 
C          C       0.41781   0.11261   1.23530 
C          C       0.43774   0.06098   1.23530 
C          C       0.49027   0.02732   1.23530 
C          C       0.52224   0.04837   1.23530 
C          C       0.50263   0.10028   1.23530 
H          H       0.35217   0.20979   1.23530 
H          H       0.37611   0.13785   1.23530 
H          H       0.52788   0.11702   1.23530 
H          H       0.41099   0.04620   1.23530 
H          H       0.56395   0.02342   1.23530 
N          N       0.56820   0.81556   1.23530 
C          C       0.61792   0.77987   1.23530 
C          C       0.54977   0.86722   1.23530 
C          C       0.58219   0.88739   1.23530 
C          C       0.56227   0.93903   1.23530 
C          C       0.50973   0.97268   1.23530 
C          C       0.47776   0.95163   1.23530 
C          C       0.49738   0.89972   1.23530 
H          H       0.64783   0.79021   1.23530 
H          H       0.62389   0.86215   1.23530 
H          H       0.47212   0.88298   1.23530 
H          H       0.58901   0.95380   1.23530 
H          H       0.43605   0.97658   1.23530 
C          C       0.63615   0.64359   1.23530 
C          C       0.64359   0.72026   1.23530 
C          C       0.72026   0.63615   1.23530 
C          C       0.61321   0.69711   1.23530 
C          C       0.69711   0.68969   1.23530 
C          C       0.68969   0.61321   1.23530 
H          H       0.70752   0.57180   1.23530 
H          H       0.57180   0.72069   1.23530 
H          H       0.72069   0.70752   1.23530 
C          C       0.36385   0.35641   1.23530 
C          C       0.35641   0.27974   1.23530 
C          C       0.27974   0.36385   1.23530 
C          C       0.38679   0.30290   1.23530 
C          C       0.30290   0.31032   1.23530 
C          C       0.31032   0.38679   1.23530 
H          H       0.29248   0.42821   1.23530 
H          H       0.42821   0.27931   1.23530 
H          H       0.27931   0.29248   1.23530 
