data_crystal

_cell_length_a    37.23790
_cell_length_b    37.23790
_cell_length_c    7.05260
_cell_angle_alpha 90.00000
_cell_angle_beta  90.00000
_cell_angle_gamma 120.00000

_space_group_name_Hall 'P 1'
_space_group_name_H-M_alt  'P 1'

loop_
_symmetry_equiv_pos_as_xyz
'x,y,z' 

loop_
_atom_site_label
_atom_site_type_symbol
_atom_site_fract_x
_atom_site_fract_y
_atom_site_fract_z
C          C       0.88401   0.44824   0.25000 
C          C       0.55176   0.43577   0.25000 
C          C       0.56423   0.11599   0.25000 
C          C       0.11599   0.55176   0.25000 
C          C       0.44824   0.56423   0.25000 
C          C       0.43577   0.88401   0.25000 
N          N       0.91454   0.43856   0.25000 
N          N       0.56144   0.47598   0.25000 
N          N       0.52402   0.08546   0.25000 
N          N       0.08546   0.56144   0.25000 
N          N       0.43856   0.52402   0.25000 
N          N       0.47598   0.91454   0.25000 
C          C       0.95683   0.46932   0.25000 
C          C       0.53068   0.48751   0.25000 
C          C       0.51249   0.04317   0.25000 
C          C       0.04317   0.53068   0.25000 
C          C       0.46932   0.51249   0.25000 
C          C       0.48751   0.95683   0.25000 
C          C       0.98766   0.45771   0.25000 
C          C       0.54229   0.52995   0.25000 
C          C       0.47005   0.01234   0.25000 
C          C       0.01234   0.54229   0.25000 
C          C       0.45771   0.47005   0.25000 
C          C       0.52995   0.98766   0.25000 
C          C       0.03007   0.48786   0.25000 
C          C       0.51214   0.54220   0.25000 
C          C       0.45780   0.96993   0.25000 
C          C       0.96993   0.51214   0.25000 
C          C       0.48786   0.45780   0.25000 
C          C       0.54220   0.03007   0.25000 
H          H       0.97955   0.42708   0.25000 
H          H       0.57292   0.55247   0.25000 
H          H       0.44753   0.02045   0.25000 
H          H       0.02045   0.57292   0.25000 
H          H       0.42708   0.44753   0.25000 
H          H       0.55247   0.97955   0.25000 
H          H       0.05141   0.47821   0.25000 
H          H       0.52179   0.57320   0.25000 
H          H       0.42680   0.94859   0.25000 
H          H       0.94859   0.52179   0.25000 
H          H       0.47821   0.42680   0.25000 
H          H       0.57320   0.05141   0.25000 
C          C       0.17947   0.61985   0.25000 
C          C       0.22313   0.64234   0.25000 
C          C       0.38015   0.55963   0.25000 
C          C       0.35766   0.58079   0.25000 
C          C       0.44037   0.82053   0.25000 
C          C       0.41921   0.77687   0.25000 
C          C       0.82053   0.38015   0.25000 
C          C       0.77687   0.35766   0.25000 
C          C       0.61985   0.44037   0.25000 
C          C       0.64234   0.41921   0.25000 
C          C       0.55963   0.17947   0.25000 
C          C       0.58079   0.22313   0.25000 
H          H       0.16382   0.63580   0.25000 
H          H       0.23759   0.67403   0.25000 
H          H       0.36420   0.52801   0.25000 
H          H       0.32597   0.56355   0.25000 
H          H       0.47199   0.83618   0.25000 
H          H       0.43645   0.76241   0.25000 
H          H       0.83618   0.36420   0.25000 
H          H       0.76241   0.32597   0.25000 
H          H       0.63580   0.47199   0.25000 
H          H       0.67403   0.43645   0.25000 
H          H       0.52801   0.16382   0.25000 
H          H       0.56355   0.23759   0.25000 
C          C       0.37463   0.81913   0.25000 
C          C       0.35346   0.77548   0.25000 
C          C       0.18087   0.55550   0.25000 
C          C       0.22452   0.57798   0.25000 
C          C       0.44450   0.62537   0.25000 
C          C       0.42202   0.64654   0.25000 
C          C       0.62537   0.18087   0.25000 
C          C       0.64654   0.22452   0.25000 
C          C       0.81913   0.44450   0.25000 
C          C       0.77548   0.42202   0.25000 
C          C       0.55550   0.37463   0.25000 
C          C       0.57798   0.35346   0.25000 
H          H       0.35798   0.83419   0.25000 
H          H       0.32174   0.76004   0.25000 
H          H       0.16581   0.52380   0.25000 
H          H       0.23996   0.56170   0.25000 
H          H       0.47620   0.64202   0.25000 
H          H       0.43830   0.67826   0.25000 
H          H       0.64202   0.16581   0.25000 
H          H       0.67826   0.23996   0.25000 
H          H       0.83419   0.47620   0.25000 
H          H       0.76004   0.43830   0.25000 
H          H       0.52380   0.35798   0.25000 
H          H       0.56170   0.32174   0.25000 
C          C       0.35398   0.70934   0.25000 
C          C       0.29066   0.64465   0.25000 
C          C       0.35535   0.64602   0.25000 
C          C       0.41825   0.84219   0.25000 
C          C       0.15781   0.57606   0.25000 
C          C       0.42394   0.58175   0.25000 
C          C       0.37525   0.75328   0.25000 
C          C       0.24672   0.62197   0.25000 
C          C       0.37803   0.62475   0.25000 
N          N       0.37471   0.68802   0.25000 
N          N       0.31198   0.68669   0.25000 
N          N       0.31331   0.62529   0.25000 
C          C       0.64602   0.29066   0.25000 
C          C       0.70934   0.35535   0.25000 
C          C       0.64465   0.35398   0.25000 
C          C       0.58175   0.15781   0.25000 
C          C       0.84219   0.42394   0.25000 
C          C       0.57606   0.41825   0.25000 
C          C       0.62475   0.24672   0.25000 
C          C       0.75328   0.37803   0.25000 
C          C       0.62197   0.37525   0.25000 
N          N       0.62529   0.31198   0.25000 
N          N       0.68802   0.31331   0.25000 
N          N       0.68669   0.37471   0.25000 
C          C       0.88401   0.44824   0.75000 
C          C       0.55176   0.43577   0.75000 
C          C       0.56423   0.11599   0.75000 
C          C       0.11599   0.55176   0.75000 
C          C       0.44824   0.56423   0.75000 
C          C       0.43577   0.88401   0.75000 
N          N       0.91454   0.43856   0.75000 
N          N       0.56144   0.47598   0.75000 
N          N       0.52402   0.08546   0.75000 
N          N       0.08546   0.56144   0.75000 
N          N       0.43856   0.52402   0.75000 
N          N       0.47598   0.91454   0.75000 
C          C       0.95683   0.46932   0.75000 
C          C       0.53068   0.48751   0.75000 
C          C       0.51249   0.04317   0.75000 
C          C       0.04317   0.53068   0.75000 
C          C       0.46932   0.51249   0.75000 
C          C       0.48751   0.95683   0.75000 
C          C       0.98766   0.45771   0.75000 
C          C       0.54229   0.52995   0.75000 
C          C       0.47005   0.01234   0.75000 
C          C       0.01234   0.54229   0.75000 
C          C       0.45771   0.47005   0.75000 
C          C       0.52995   0.98766   0.75000 
C          C       0.03007   0.48786   0.75000 
C          C       0.51214   0.54220   0.75000 
C          C       0.45780   0.96993   0.75000 
C          C       0.96993   0.51214   0.75000 
C          C       0.48786   0.45780   0.75000 
C          C       0.54220   0.03007   0.75000 
H          H       0.97955   0.42708   0.75000 
H          H       0.57292   0.55247   0.75000 
H          H       0.44753   0.02045   0.75000 
H          H       0.02045   0.57292   0.75000 
H          H       0.42708   0.44753   0.75000 
H          H       0.55247   0.97955   0.75000 
H          H       0.05141   0.47821   0.75000 
H          H       0.52179   0.57320   0.75000 
H          H       0.42680   0.94859   0.75000 
H          H       0.94859   0.52179   0.75000 
H          H       0.47821   0.42680   0.75000 
H          H       0.57320   0.05141   0.75000 
C          C       0.17947   0.61985   0.75000 
C          C       0.22313   0.64234   0.75000 
C          C       0.38015   0.55963   0.75000 
C          C       0.35766   0.58079   0.75000 
C          C       0.44037   0.82053   0.75000 
C          C       0.41921   0.77687   0.75000 
C          C       0.82053   0.38015   0.75000 
C          C       0.77687   0.35766   0.75000 
C          C       0.61985   0.44037   0.75000 
C          C       0.64234   0.41921   0.75000 
C          C       0.55963   0.17947   0.75000 
C          C       0.58079   0.22313   0.75000 
H          H       0.16382   0.63580   0.75000 
H          H       0.23759   0.67403   0.75000 
H          H       0.36420   0.52801   0.75000 
H          H       0.32597   0.56355   0.75000 
H          H       0.47199   0.83618   0.75000 
H          H       0.43645   0.76241   0.75000 
H          H       0.83618   0.36420   0.75000 
H          H       0.76241   0.32597   0.75000 
H          H       0.63580   0.47199   0.75000 
H          H       0.67403   0.43645   0.75000 
H          H       0.52801   0.16382   0.75000 
H          H       0.56355   0.23759   0.75000 
C          C       0.37463   0.81913   0.75000 
C          C       0.35346   0.77548   0.75000 
C          C       0.18087   0.55550   0.75000 
C          C       0.22452   0.57798   0.75000 
C          C       0.44450   0.62537   0.75000 
C          C       0.42202   0.64654   0.75000 
C          C       0.62537   0.18087   0.75000 
C          C       0.64654   0.22452   0.75000 
C          C       0.81913   0.44450   0.75000 
C          C       0.77548   0.42202   0.75000 
C          C       0.55550   0.37463   0.75000 
C          C       0.57798   0.35346   0.75000 
H          H       0.35798   0.83419   0.75000 
H          H       0.32174   0.76004   0.75000 
H          H       0.16581   0.52380   0.75000 
H          H       0.23996   0.56170   0.75000 
H          H       0.47620   0.64202   0.75000 
H          H       0.43830   0.67826   0.75000 
H          H       0.64202   0.16581   0.75000 
H          H       0.67826   0.23996   0.75000 
H          H       0.83419   0.47620   0.75000 
H          H       0.76004   0.43830   0.75000 
H          H       0.52380   0.35798   0.75000 
H          H       0.56170   0.32174   0.75000 
C          C       0.35398   0.70934   0.75000 
C          C       0.29066   0.64465   0.75000 
C          C       0.35535   0.64602   0.75000 
C          C       0.41825   0.84219   0.75000 
C          C       0.15781   0.57606   0.75000 
C          C       0.42394   0.58175   0.75000 
C          C       0.37525   0.75328   0.75000 
C          C       0.24672   0.62197   0.75000 
C          C       0.37803   0.62475   0.75000 
N          N       0.37471   0.68802   0.75000 
N          N       0.31198   0.68669   0.75000 
N          N       0.31331   0.62529   0.75000 
C          C       0.64602   0.29066   0.75000 
C          C       0.70934   0.35535   0.75000 
C          C       0.64465   0.35398   0.75000 
C          C       0.58175   0.15781   0.75000 
C          C       0.84219   0.42394   0.75000 
C          C       0.57606   0.41825   0.75000 
C          C       0.62475   0.24672   0.75000 
C          C       0.75328   0.37803   0.75000 
C          C       0.62197   0.37525   0.75000 
N          N       0.62529   0.31198   0.75000 
N          N       0.68802   0.31331   0.75000 
N          N       0.68669   0.37471   0.75000 
H          H       0.89557   0.48107   0.25014 
H          H       0.58575   0.10563   0.24961 
H          H       0.51446   0.41126   0.24976 
H          H       0.48312   0.58581   0.24994 
H          H       0.09808   0.51468   0.25044 
H          H       0.41354   0.89697   0.25000 
H          H       0.51662   0.41259   0.75190 
H          H       0.89565   0.48246   0.74797 
H          H       0.58888   0.10704   0.75044 
H          H       0.41557   0.90011   0.74901 
H          H       0.10063   0.51877   0.75202 
H          H       0.48389   0.58927   0.74760 
