data_crystal

_cell_length_a    24.68830
_cell_length_b    28.47070
_cell_length_c    13.87100
_cell_angle_alpha 90.00000
_cell_angle_beta  90.00000
_cell_angle_gamma 90.00000

_space_group_name_Hall 'P 1'
_space_group_name_H-M_alt  'P 1'

loop_
_symmetry_equiv_pos_as_xyz
'x,y,z' 

loop_
_atom_site_label
_atom_site_type_symbol
_atom_site_fract_x
_atom_site_fract_y
_atom_site_fract_z
N          N       0.75690   0.22762   0.25000 
O          O       0.80359   0.21504   0.25000 
N          N       0.24310   0.77238   0.25000 
O          O       0.19641   0.78496   0.25000 
N          N       0.24310   0.22762   0.25000 
O          O       0.19641   0.21504   0.25000 
N          N       0.75690   0.77238   0.25000 
O          O       0.80359   0.78496   0.25000 
N          N       0.50000   0.07448   0.25000 
N          N       0.50000   0.92552   0.25000 
H          H       0.50000   0.04049   0.25000 
H          H       0.50000   0.95951   0.25000 
C          C       0.45472   0.10119   0.25000 
C          C       0.45472   0.89881   0.25000 
C          C       0.47213   0.14788   0.25000 
C          C       0.47213   0.85212   0.25000 
H          H       0.44854   0.17739   0.25000 
H          H       0.44854   0.82261   0.25000 
N          N       0.91449   0.50000   0.25000 
C          C       0.88307   0.53897   0.25000 
C          C       0.88307   0.46103   0.25000 
C          C       0.82916   0.52413   0.25000 
C          C       0.82916   0.47587   0.25000 
H          H       0.79519   0.54464   0.25000 
H          H       0.79519   0.45536   0.25000 
C          C       0.40004   0.08640   0.25000 
C          C       0.40004   0.91360   0.25000 
C          C       0.35973   0.12149   0.25000 
C          C       0.35973   0.87851   0.25000 
C          C       0.33955   0.13925   0.16195 
C          C       0.33955   0.86075   0.33806 
C          C       0.33955   0.13925   0.33806 
C          C       0.33955   0.86075   0.16195 
H          H       0.35362   0.12666   0.09754 
H          H       0.35362   0.87334   0.40247 
H          H       0.35362   0.12666   0.40247 
H          H       0.35362   0.87334   0.09754 
C          C       0.29993   0.17470   0.16201 
C          C       0.29993   0.82530   0.33799 
C          C       0.29993   0.17470   0.33799 
C          C       0.29993   0.82530   0.16201 
H          H       0.28575   0.18749   0.09789 
H          H       0.28575   0.81251   0.40211 
H          H       0.28575   0.18749   0.40211 
H          H       0.28575   0.81251   0.09789 
C          C       0.28016   0.19265   0.25000 
C          C       0.28016   0.80735   0.25000 
C          C       0.54528   0.89881   0.25000 
C          C       0.54528   0.10119   0.25000 
C          C       0.52787   0.85212   0.25000 
C          C       0.52787   0.14788   0.25000 
H          H       0.55146   0.82261   0.25000 
H          H       0.55146   0.17739   0.25000 
N          N       0.08551   0.50000   0.25000 
C          C       0.11693   0.46103   0.25000 
C          C       0.11693   0.53897   0.25000 
C          C       0.17084   0.47587   0.25000 
C          C       0.17084   0.52413   0.25000 
H          H       0.20481   0.45536   0.25000 
H          H       0.20481   0.54464   0.25000 
C          C       0.59996   0.91360   0.25000 
C          C       0.59996   0.08640   0.25000 
C          C       0.64027   0.87851   0.25000 
C          C       0.64027   0.12149   0.25000 
C          C       0.66045   0.86075   0.16195 
C          C       0.66045   0.13925   0.33806 
C          C       0.66045   0.86075   0.33806 
C          C       0.66045   0.13925   0.16195 
H          H       0.64638   0.87334   0.09754 
H          H       0.64638   0.12666   0.40247 
H          H       0.64638   0.87334   0.40247 
H          H       0.64638   0.12666   0.09754 
C          C       0.70007   0.82530   0.16201 
C          C       0.70007   0.17470   0.33799 
C          C       0.70007   0.82530   0.33799 
C          C       0.70007   0.17470   0.16201 
H          H       0.71425   0.81251   0.09789 
H          H       0.71425   0.18749   0.40211 
H          H       0.71425   0.81251   0.40211 
H          H       0.71425   0.18749   0.09789 
C          C       0.71984   0.80735   0.25000 
C          C       0.71984   0.19265   0.25000 
N          N       0.25690   0.72762   0.25000 
O          O       0.30359   0.71504   0.25000 
N          N      -0.00000   0.57448   0.25000 
H          H      -0.00000   0.54049   0.25000 
C          C      -0.04528   0.60119   0.25000 
C          C      -0.02787   0.64788   0.25000 
H          H      -0.05146   0.67739   0.25000 
C          C      -0.09996   0.58640   0.25000 
C          C      -0.14027   0.62149   0.25000 
C          C      -0.16045   0.63925   0.16195 
C          C      -0.16045   0.63925   0.33806 
H          H      -0.14638   0.62666   0.09754 
H          H      -0.14638   0.62666   0.40247 
C          C      -0.20007   0.67470   0.16201 
C          C      -0.20007   0.67470   0.33799 
H          H      -0.21425   0.68749   0.09789 
H          H      -0.21425   0.68749   0.40211 
C          C      -0.21984   0.69265   0.25000 
C          C       0.04528   0.60119   0.25000 
C          C       0.02787   0.64788   0.25000 
H          H       0.05146   0.67739   0.25000 
C          C       0.09996   0.58640   0.25000 
C          C       0.14027   0.62149   0.25000 
C          C       0.16045   0.63925   0.33806 
C          C       0.16045   0.63925   0.16195 
H          H       0.14638   0.62666   0.40247 
H          H       0.14638   0.62666   0.09754 
C          C       0.20007   0.67470   0.33799 
C          C       0.20007   0.67470   0.16201 
H          H       0.21425   0.68749   0.40211 
H          H       0.21425   0.68749   0.09789 
C          C       0.21984   0.69265   0.25000 
N          N       0.74310   0.27238   0.25000 
O          O       0.69641   0.28496   0.25000 
N          N       0.58551  -0.00000   0.25000 
C          C       0.61693  -0.03897   0.25000 
C          C       0.61693   0.03897   0.25000 
C          C       0.67084  -0.02413   0.25000 
C          C       0.67084   0.02413   0.25000 
H          H       0.70481  -0.04464   0.25000 
H          H       0.70481   0.04464   0.25000 
N          N       0.74310   0.72762   0.25000 
O          O       0.69641   0.71504   0.25000 
N          N       0.25690   0.27238   0.25000 
O          O       0.30359   0.28496   0.25000 
N          N      -0.00000   0.42552   0.25000 
H          H      -0.00000   0.45951   0.25000 
C          C       0.04528   0.39881   0.25000 
C          C       0.02787   0.35212   0.25000 
H          H       0.05146   0.32261   0.25000 
C          C       0.09996   0.41360   0.25000 
C          C       0.14027   0.37851   0.25000 
C          C       0.16045   0.36075   0.16195 
C          C       0.16045   0.36075   0.33806 
H          H       0.14638   0.37334   0.09754 
H          H       0.14638   0.37334   0.40247 
C          C       0.20007   0.32530   0.16201 
C          C       0.20007   0.32530   0.33799 
H          H       0.21425   0.31251   0.09789 
H          H       0.21425   0.31251   0.40211 
C          C       0.21984   0.30735   0.25000 
C          C      -0.04528   0.39881   0.25000 
C          C      -0.02787   0.35212   0.25000 
H          H      -0.05146   0.32261   0.25000 
N          N       0.41449  -0.00000   0.25000 
C          C       0.38307   0.03897   0.25000 
C          C       0.38307  -0.03897   0.25000 
C          C       0.32916   0.02413   0.25000 
C          C       0.32916  -0.02413   0.25000 
H          H       0.29519   0.04464   0.25000 
H          H       0.29519  -0.04464   0.25000 
C          C      -0.09996   0.41360   0.25000 
C          C      -0.14027   0.37851   0.25000 
C          C      -0.16045   0.36075   0.33806 
C          C      -0.16045   0.36075   0.16195 
H          H      -0.14638   0.37334   0.40247 
H          H      -0.14638   0.37334   0.09754 
C          C      -0.20007   0.32530   0.33799 
C          C      -0.20007   0.32530   0.16201 
H          H      -0.21425   0.31251   0.40211 
H          H      -0.21425   0.31251   0.09789 
C          C      -0.21984   0.30735   0.25000 
N          N       0.75690   0.22762   0.75000 
O          O       0.80359   0.21504   0.75000 
N          N       0.24310   0.77238   0.75000 
O          O       0.19641   0.78496   0.75000 
N          N       0.24310   0.22762   0.75000 
O          O       0.19641   0.21504   0.75000 
N          N       0.75690   0.77238   0.75000 
O          O       0.80359   0.78496   0.75000 
N          N       0.50000   0.07448   0.75000 
N          N       0.50000   0.92552   0.75000 
H          H       0.50000   0.04049   0.75000 
H          H       0.50000   0.95951   0.75000 
C          C       0.45472   0.10119   0.75000 
C          C       0.45472   0.89881   0.75000 
C          C       0.47213   0.14788   0.75000 
C          C       0.47213   0.85212   0.75000 
H          H       0.44854   0.17739   0.75000 
H          H       0.44854   0.82261   0.75000 
N          N       0.91449   0.50000   0.75000 
C          C       0.88307   0.53897   0.75000 
C          C       0.88307   0.46103   0.75000 
C          C       0.82916   0.52413   0.75000 
C          C       0.82916   0.47587   0.75000 
H          H       0.79519   0.54464   0.75000 
H          H       0.79519   0.45536   0.75000 
C          C       0.40004   0.08640   0.75000 
C          C       0.40004   0.91360   0.75000 
C          C       0.35973   0.12149   0.75000 
C          C       0.35973   0.87851   0.75000 
C          C       0.33955   0.13925   0.66195 
C          C       0.33955   0.86075   0.83805 
C          C       0.33955   0.13925   0.83805 
C          C       0.33955   0.86075   0.66195 
H          H       0.35362   0.12666   0.59754 
H          H       0.35362   0.87334   0.90247 
H          H       0.35362   0.12666   0.90247 
H          H       0.35362   0.87334   0.59754 
C          C       0.29993   0.17470   0.66201 
C          C       0.29993   0.82530   0.83799 
C          C       0.29993   0.17470   0.83799 
C          C       0.29993   0.82530   0.66201 
H          H       0.28575   0.18749   0.59789 
H          H       0.28575   0.81251   0.90211 
H          H       0.28575   0.18749   0.90211 
H          H       0.28575   0.81251   0.59789 
C          C       0.28016   0.19265   0.75000 
C          C       0.28016   0.80735   0.75000 
C          C       0.54528   0.89881   0.75000 
C          C       0.54528   0.10119   0.75000 
C          C       0.52787   0.85212   0.75000 
C          C       0.52787   0.14788   0.75000 
H          H       0.55146   0.82261   0.75000 
H          H       0.55146   0.17739   0.75000 
N          N       0.08551   0.50000   0.75000 
C          C       0.11693   0.46103   0.75000 
C          C       0.11693   0.53897   0.75000 
C          C       0.17084   0.47587   0.75000 
C          C       0.17084   0.52413   0.75000 
H          H       0.20481   0.45536   0.75000 
H          H       0.20481   0.54464   0.75000 
C          C       0.59996   0.91360   0.75000 
C          C       0.59996   0.08640   0.75000 
C          C       0.64027   0.87851   0.75000 
C          C       0.64027   0.12149   0.75000 
C          C       0.66045   0.86075   0.66195 
C          C       0.66045   0.13925   0.83805 
C          C       0.66045   0.86075   0.83805 
C          C       0.66045   0.13925   0.66195 
H          H       0.64638   0.87334   0.59754 
H          H       0.64638   0.12666   0.90247 
H          H       0.64638   0.87334   0.90247 
H          H       0.64638   0.12666   0.59754 
C          C       0.70007   0.82530   0.66201 
C          C       0.70007   0.17470   0.83799 
C          C       0.70007   0.82530   0.83799 
C          C       0.70007   0.17470   0.66201 
H          H       0.71425   0.81251   0.59789 
H          H       0.71425   0.18749   0.90211 
H          H       0.71425   0.81251   0.90211 
H          H       0.71425   0.18749   0.59789 
C          C       0.71984   0.80735   0.75000 
C          C       0.71984   0.19265   0.75000 
N          N       0.25690   0.72762   0.75000 
O          O       0.30359   0.71504   0.75000 
N          N      -0.00000   0.57448   0.75000 
H          H      -0.00000   0.54049   0.75000 
C          C      -0.04528   0.60119   0.75000 
C          C      -0.02787   0.64788   0.75000 
H          H      -0.05146   0.67739   0.75000 
C          C      -0.09996   0.58640   0.75000 
C          C      -0.14027   0.62149   0.75000 
C          C      -0.16045   0.63925   0.66195 
C          C      -0.16045   0.63925   0.83805 
H          H      -0.14638   0.62666   0.59754 
H          H      -0.14638   0.62666   0.90247 
C          C      -0.20007   0.67470   0.66201 
C          C      -0.20007   0.67470   0.83799 
H          H      -0.21425   0.68749   0.59789 
H          H      -0.21425   0.68749   0.90211 
C          C      -0.21984   0.69265   0.75000 
C          C       0.04528   0.60119   0.75000 
C          C       0.02787   0.64788   0.75000 
H          H       0.05146   0.67739   0.75000 
C          C       0.09996   0.58640   0.75000 
C          C       0.14027   0.62149   0.75000 
C          C       0.16045   0.63925   0.83805 
C          C       0.16045   0.63925   0.66195 
H          H       0.14638   0.62666   0.90247 
H          H       0.14638   0.62666   0.59754 
C          C       0.20007   0.67470   0.83799 
C          C       0.20007   0.67470   0.66201 
H          H       0.21425   0.68749   0.90211 
H          H       0.21425   0.68749   0.59789 
C          C       0.21984   0.69265   0.75000 
N          N       0.74310   0.27238   0.75000 
O          O       0.69641   0.28496   0.75000 
N          N       0.58551  -0.00000   0.75000 
C          C       0.61693  -0.03897   0.75000 
C          C       0.61693   0.03897   0.75000 
C          C       0.67084  -0.02413   0.75000 
C          C       0.67084   0.02413   0.75000 
H          H       0.70481  -0.04464   0.75000 
H          H       0.70481   0.04464   0.75000 
N          N       0.74310   0.72762   0.75000 
O          O       0.69641   0.71504   0.75000 
N          N       0.25690   0.27238   0.75000 
O          O       0.30359   0.28496   0.75000 
N          N      -0.00000   0.42552   0.75000 
H          H      -0.00000   0.45951   0.75000 
C          C       0.04528   0.39881   0.75000 
C          C       0.02787   0.35212   0.75000 
H          H       0.05146   0.32261   0.75000 
C          C       0.09996   0.41360   0.75000 
C          C       0.14027   0.37851   0.75000 
C          C       0.16045   0.36075   0.66195 
C          C       0.16045   0.36075   0.83805 
H          H       0.14638   0.37334   0.59754 
H          H       0.14638   0.37334   0.90247 
C          C       0.20007   0.32530   0.66201 
C          C       0.20007   0.32530   0.83799 
H          H       0.21425   0.31251   0.59789 
H          H       0.21425   0.31251   0.90211 
C          C       0.21984   0.30735   0.75000 
C          C      -0.04528   0.39881   0.75000 
C          C      -0.02787   0.35212   0.75000 
H          H      -0.05146   0.32261   0.75000 
N          N       0.41449  -0.00000   0.75000 
C          C       0.38307   0.03897   0.75000 
C          C       0.38307  -0.03897   0.75000 
C          C       0.32916   0.02413   0.75000 
C          C       0.32916  -0.02413   0.75000 
H          H       0.29519   0.04464   0.75000 
H          H       0.29519  -0.04464   0.75000 
C          C      -0.09996   0.41360   0.75000 
C          C      -0.14027   0.37851   0.75000 
C          C      -0.16045   0.36075   0.83805 
C          C      -0.16045   0.36075   0.66195 
H          H      -0.14638   0.37334   0.90247 
H          H      -0.14638   0.37334   0.59754 
C          C      -0.20007   0.32530   0.83799 
C          C      -0.20007   0.32530   0.66201 
H          H      -0.21425   0.31251   0.90211 
H          H      -0.21425   0.31251   0.59789 
C          C      -0.21984   0.30735   0.75000 
