data_crystal
 
_cell_length_a    36.95000
_cell_length_b    36.95000
_cell_length_c    7.08000
_cell_angle_alpha 90.00000
_cell_angle_beta  90.00000
_cell_angle_gamma 120.00000
 
_symmetry_space_group_name_Hall 'P 1'
_symmetry_space_group_name_H-M  'P 1'
 
loop_
_symmetry_equiv_pos_as_xyz
 'x,y,z' 
 
loop_
_atom_site_label
_atom_site_type_symbol
_atom_site_fract_x
_atom_site_fract_y
_atom_site_fract_z
_atom_site_charge
C          C       0.70424   0.37347   0.25000   0.0000000000
C          C       0.70700   0.33638   0.25000   0.0000000000
C          C       0.74653   0.33917   0.25000   0.0000000000
C          C       0.78121   0.37799   0.25000   0.0000000000
C          C       0.77857   0.41440   0.25000   0.0000000000
C          C       0.74101   0.41307   0.25000   0.0000000000
O          O       0.81828   0.44890   0.25000   0.0000000000
B          B       0.84470   0.43198   0.25000   0.0000000000
O          O       0.82243   0.38816   0.25000   0.0000000000
C          C       0.89179   0.45592   0.25000   0.0000000000
S          S       0.92138   0.51037   0.25000   0.0000000000
C          C       0.96754   0.50842   0.25000   0.0000000000
C          C       0.95933   0.46616   0.25000   0.0000000000
C          C       0.91590   0.43730   0.25000   0.0000000000
C          C       0.00772   0.54220   0.25000   0.0000000000
C          C       0.62653   0.33077   0.25000   0.0000000000
C          C       0.66362   0.37062   0.25000   0.0000000000
C          C       0.66083   0.40736   0.25000   0.0000000000
C          C       0.62201   0.40321   0.25000   0.0000000000
C          C       0.58560   0.36417   0.25000   0.0000000000
C          C       0.58693   0.32793   0.25000   0.0000000000
O          O       0.55110   0.36939   0.25000   0.0000000000
B          B       0.56802   0.41273   0.25000   0.0000000000
O          O       0.61184   0.43427   0.25000   0.0000000000
C          C       0.54408   0.43587   0.25000   0.0000000000
S          S       0.48963   0.41102   0.25000   0.0000000000
C          C       0.49158   0.45912   0.25000   0.0000000000
C          C       0.53384   0.49317   0.25000   0.0000000000
C          C       0.56270   0.47860   0.25000   0.0000000000
C          C       0.45780   0.46552   0.25000   0.0000000000
C          C       0.66923   0.29576   0.25000   0.0000000000
C          C       0.62938   0.29300   0.25000   0.0000000000
C          C       0.59264   0.25347   0.25000   0.0000000000
C          C       0.59679   0.21879   0.25000   0.0000000000
C          C       0.63583   0.22143   0.25000   0.0000000000
C          C       0.67207   0.25899   0.25000   0.0000000000
O          O       0.63061   0.18172   0.25000   0.0000000000
B          B       0.58727   0.15530   0.25000   0.0000000000
O          O       0.56573   0.17757   0.25000   0.0000000000
C          C       0.56413   0.10821   0.25000   0.0000000000
S          S       0.58898   0.07862   0.25000   0.0000000000
C          C       0.54088   0.03246   0.25000   0.0000000000
C          C       0.50683   0.04067   0.25000   0.0000000000
C          C       0.52140   0.08410   0.25000   0.0000000000
C          C       0.53448   0.99228   0.25000   0.0000000000
C          C       0.29576   0.62653   0.25000   0.0000000000
C          C       0.29300   0.66362   0.25000   0.0000000000
C          C       0.25347   0.66083   0.25000   0.0000000000
C          C       0.21879   0.62201   0.25000   0.0000000000
C          C       0.22143   0.58560   0.25000   0.0000000000
C          C       0.25899   0.58693   0.25000   0.0000000000
O          O       0.18172   0.55110   0.25000   0.0000000000
B          B       0.15530   0.56802   0.25000   0.0000000000
O          O       0.17757   0.61184   0.25000   0.0000000000
C          C       0.10821   0.54408   0.25000   0.0000000000
S          S       0.07862   0.48963   0.25000   0.0000000000
C          C       0.03246   0.49158   0.25000   0.0000000000
C          C       0.04067   0.53384   0.25000   0.0000000000
C          C       0.08410   0.56270   0.25000   0.0000000000
C          C       0.99228   0.45780   0.25000   0.0000000000
C          C       0.37347   0.66923   0.25000   0.0000000000
C          C       0.33638   0.62938   0.25000   0.0000000000
C          C       0.33917   0.59264   0.25000   0.0000000000
C          C       0.37799   0.59679   0.25000   0.0000000000
C          C       0.41440   0.63583   0.25000   0.0000000000
C          C       0.41307   0.67207   0.25000   0.0000000000
O          O       0.44890   0.63061   0.25000   0.0000000000
B          B       0.43198   0.58727   0.25000   0.0000000000
O          O       0.38816   0.56573   0.25000   0.0000000000
C          C       0.45592   0.56413   0.25000   0.0000000000
S          S       0.51037   0.58898   0.25000   0.0000000000
C          C       0.50842   0.54088   0.25000   0.0000000000
C          C       0.46616   0.50683   0.25000   0.0000000000
C          C       0.43730   0.52140   0.25000   0.0000000000
C          C       0.54220   0.53448   0.25000   0.0000000000
C          C       0.33077   0.70424   0.25000   0.0000000000
C          C       0.37062   0.70700   0.25000   0.0000000000
C          C       0.40736   0.74653   0.25000   0.0000000000
C          C       0.40321   0.78121   0.25000   0.0000000000
C          C       0.36417   0.77857   0.25000   0.0000000000
C          C       0.32793   0.74101   0.25000   0.0000000000
O          O       0.36939   0.81828   0.25000   0.0000000000
B          B       0.41273   0.84470   0.25000   0.0000000000
O          O       0.43427   0.82243   0.25000   0.0000000000
C          C       0.43587   0.89179   0.25000   0.0000000000
S          S       0.41102   0.92138   0.25000   0.0000000000
C          C       0.45912   0.96754   0.25000   0.0000000000
C          C       0.49317   0.95933   0.25000   0.0000000000
C          C       0.47860   0.91590   0.25000   0.0000000000
C          C       0.46552   0.00772   0.25000   0.0000000000
H          H       0.75034   0.31188   0.25000   0.0000000000
H          H       0.74035   0.44210   0.25000   0.0000000000
H          H       0.90248   0.40349   0.25000   0.0000000000
H          H       0.01382   0.57429   0.25000   0.0000000000
H          H       0.68812   0.43846   0.25000   0.0000000000
H          H       0.55790   0.29825   0.25000   0.0000000000
H          H       0.59651   0.49898   0.25000   0.0000000000
H          H       0.42571   0.43953   0.25000   0.0000000000
H          H       0.56154   0.24966   0.25000   0.0000000000
H          H       0.70175   0.25965   0.25000   0.0000000000
H          H       0.50102   0.09752   0.25000   0.0000000000
H          H       0.56047   0.98618   0.25000   0.0000000000
H          H       0.24966   0.68812   0.25000   0.0000000000
H          H       0.25965   0.55790   0.25000   0.0000000000
H          H       0.09752   0.59651   0.25000   0.0000000000
H          H       0.98618   0.42571   0.25000   0.0000000000
H          H       0.31188   0.56154   0.25000   0.0000000000
H          H       0.44210   0.70175   0.25000   0.0000000000
H          H       0.40349   0.50102   0.25000   0.0000000000
H          H       0.57429   0.56047   0.25000   0.0000000000
H          H       0.43846   0.75034   0.25000   0.0000000000
H          H       0.29825   0.74035   0.25000   0.0000000000
H          H       0.49898   0.90248   0.25000   0.0000000000
H          H       0.43953   0.01382   0.25000   0.0000000000
C          C       0.70424   0.37347   0.75000   0.0000000000
C          C       0.70700   0.33638   0.75000   0.0000000000
C          C       0.74653   0.33917   0.75000   0.0000000000
C          C       0.78121   0.37799   0.75000   0.0000000000
C          C       0.77857   0.41440   0.75000   0.0000000000
C          C       0.74101   0.41307   0.75000   0.0000000000
O          O       0.81828   0.44890   0.75000   0.0000000000
B          B       0.84470   0.43198   0.75000   0.0000000000
O          O       0.82243   0.38816   0.75000   0.0000000000
C          C       0.89179   0.45592   0.75000   0.0000000000
S          S       0.92138   0.51037   0.75000   0.0000000000
C          C       0.96754   0.50842   0.75000   0.0000000000
C          C       0.95933   0.46616   0.75000   0.0000000000
C          C       0.91590   0.43730   0.75000   0.0000000000
C          C       0.00772   0.54220   0.75000   0.0000000000
C          C       0.62653   0.33077   0.75000   0.0000000000
C          C       0.66362   0.37062   0.75000   0.0000000000
C          C       0.66083   0.40736   0.75000   0.0000000000
C          C       0.62201   0.40321   0.75000   0.0000000000
C          C       0.58560   0.36417   0.75000   0.0000000000
C          C       0.58693   0.32793   0.75000   0.0000000000
O          O       0.55110   0.36939   0.75000   0.0000000000
B          B       0.56802   0.41273   0.75000   0.0000000000
O          O       0.61184   0.43427   0.75000   0.0000000000
C          C       0.54408   0.43587   0.75000   0.0000000000
S          S       0.48963   0.41102   0.75000   0.0000000000
C          C       0.49158   0.45912   0.75000   0.0000000000
C          C       0.53384   0.49317   0.75000   0.0000000000
C          C       0.56270   0.47860   0.75000   0.0000000000
C          C       0.45780   0.46552   0.75000   0.0000000000
C          C       0.66923   0.29576   0.75000   0.0000000000
C          C       0.62938   0.29300   0.75000   0.0000000000
C          C       0.59264   0.25347   0.75000   0.0000000000
C          C       0.59679   0.21879   0.75000   0.0000000000
C          C       0.63583   0.22143   0.75000   0.0000000000
C          C       0.67207   0.25899   0.75000   0.0000000000
O          O       0.63061   0.18172   0.75000   0.0000000000
B          B       0.58727   0.15530   0.75000   0.0000000000
O          O       0.56573   0.17757   0.75000   0.0000000000
C          C       0.56413   0.10821   0.75000   0.0000000000
S          S       0.58898   0.07862   0.75000   0.0000000000
C          C       0.54088   0.03246   0.75000   0.0000000000
C          C       0.50683   0.04067   0.75000   0.0000000000
C          C       0.52140   0.08410   0.75000   0.0000000000
C          C       0.53448   0.99228   0.75000   0.0000000000
C          C       0.29576   0.62653   0.75000   0.0000000000
C          C       0.29300   0.66362   0.75000   0.0000000000
C          C       0.25347   0.66083   0.75000   0.0000000000
C          C       0.21879   0.62201   0.75000   0.0000000000
C          C       0.22143   0.58560   0.75000   0.0000000000
C          C       0.25899   0.58693   0.75000   0.0000000000
O          O       0.18172   0.55110   0.75000   0.0000000000
B          B       0.15530   0.56802   0.75000   0.0000000000
O          O       0.17757   0.61184   0.75000   0.0000000000
C          C       0.10821   0.54408   0.75000   0.0000000000
S          S       0.07862   0.48963   0.75000   0.0000000000
C          C       0.03246   0.49158   0.75000   0.0000000000
C          C       0.04067   0.53384   0.75000   0.0000000000
C          C       0.08410   0.56270   0.75000   0.0000000000
C          C       0.99228   0.45780   0.75000   0.0000000000
C          C       0.37347   0.66923   0.75000   0.0000000000
C          C       0.33638   0.62938   0.75000   0.0000000000
C          C       0.33917   0.59264   0.75000   0.0000000000
C          C       0.37799   0.59679   0.75000   0.0000000000
C          C       0.41440   0.63583   0.75000   0.0000000000
C          C       0.41307   0.67207   0.75000   0.0000000000
O          O       0.44890   0.63061   0.75000   0.0000000000
B          B       0.43198   0.58727   0.75000   0.0000000000
O          O       0.38816   0.56573   0.75000   0.0000000000
C          C       0.45592   0.56413   0.75000   0.0000000000
S          S       0.51037   0.58898   0.75000   0.0000000000
C          C       0.50842   0.54088   0.75000   0.0000000000
C          C       0.46616   0.50683   0.75000   0.0000000000
C          C       0.43730   0.52140   0.75000   0.0000000000
C          C       0.54220   0.53448   0.75000   0.0000000000
C          C       0.33077   0.70424   0.75000   0.0000000000
C          C       0.37062   0.70700   0.75000   0.0000000000
C          C       0.40736   0.74653   0.75000   0.0000000000
C          C       0.40321   0.78121   0.75000   0.0000000000
C          C       0.36417   0.77857   0.75000   0.0000000000
C          C       0.32793   0.74101   0.75000   0.0000000000
O          O       0.36939   0.81828   0.75000   0.0000000000
B          B       0.41273   0.84470   0.75000   0.0000000000
O          O       0.43427   0.82243   0.75000   0.0000000000
C          C       0.43587   0.89179   0.75000   0.0000000000
S          S       0.41102   0.92138   0.75000   0.0000000000
C          C       0.45912   0.96754   0.75000   0.0000000000
C          C       0.49317   0.95933   0.75000   0.0000000000
C          C       0.47860   0.91590   0.75000   0.0000000000
C          C       0.46552   0.00772   0.75000   0.0000000000
H          H       0.75034   0.31188   0.75000   0.0000000000
H          H       0.74035   0.44210   0.75000   0.0000000000
H          H       0.90248   0.40349   0.75000   0.0000000000
H          H       0.01382   0.57429   0.75000   0.0000000000
H          H       0.68812   0.43846   0.75000   0.0000000000
H          H       0.55790   0.29825   0.75000   0.0000000000
H          H       0.59651   0.49898   0.75000   0.0000000000
H          H       0.42571   0.43953   0.75000   0.0000000000
H          H       0.56154   0.24966   0.75000   0.0000000000
H          H       0.70175   0.25965   0.75000   0.0000000000
H          H       0.50102   0.09752   0.75000   0.0000000000
H          H       0.56047   0.98618   0.75000   0.0000000000
H          H       0.24966   0.68812   0.75000   0.0000000000
H          H       0.25965   0.55790   0.75000   0.0000000000
H          H       0.09752   0.59651   0.75000   0.0000000000
H          H       0.98618   0.42571   0.75000   0.0000000000
H          H       0.31188   0.56154   0.75000   0.0000000000
H          H       0.44210   0.70175   0.75000   0.0000000000
H          H       0.40349   0.50102   0.75000   0.0000000000
H          H       0.57429   0.56047   0.75000   0.0000000000
H          H       0.43846   0.75034   0.75000   0.0000000000
H          H       0.29825   0.74035   0.75000   0.0000000000
H          H       0.49898   0.90248   0.75000   0.0000000000
H          H       0.43953   0.01382   0.75000   0.0000000000
