data_crystal

_cell_length_a    40.71770
_cell_length_b    40.71450
_cell_length_c    6.80000
_cell_angle_alpha 90.00000
_cell_angle_beta  90.00000
_cell_angle_gamma 119.78820

_space_group_name_Hall 'P 1'
_space_group_name_H-M_alt  'P 1'

loop_
_symmetry_equiv_pos_as_xyz
'x,y,z' 

loop_
_atom_site_label
_atom_site_type_symbol
_atom_site_fract_x
_atom_site_fract_y
_atom_site_fract_z
C          C       0.50141   0.46694   0.73530 
N          N       0.53391   0.50109   0.73530 
C          C       0.53294   0.53403   0.73530 
N          N       0.49874   0.53244   0.73530 
C          C       0.46588   0.49871   0.73530 
N          N       0.46761   0.46617   0.73530 
O          O       0.50459   0.43395   0.73530 
O          O       0.56576   0.57011   0.73530 
O          O       0.42977   0.49560   0.73530 
C          C       0.47410   0.39609   0.73530 
C          C       0.60372   0.57766   0.73530 
C          C       0.42224   0.52609   0.73530 
C          C       0.44964   0.56544   0.73530 
C          C       0.43809   0.59285   0.73530 
C          C       0.39942   0.58215   0.73530 
C          C       0.37205   0.54309   0.73530 
C          C       0.38356   0.51569   0.73530 
C          C       0.61585   0.55026   0.73530 
C          C       0.65476   0.56185   0.73530 
C          C       0.68247   0.60054   0.73530 
C          C       0.67058   0.62789   0.73530 
C          C       0.63173   0.61635   0.73530 
C          C       0.43474   0.38436   0.73530 
C          C       0.40734   0.34556   0.73530 
C          C       0.41804   0.31753   0.73530 
C          C       0.45710   0.32898   0.73530 
C          C       0.48451   0.36774   0.73530 
H          H       0.47969   0.57640   0.73530 
H          H       0.45938   0.62265   0.73530 
H          H       0.34202   0.53332   0.73530 
H          H       0.36214   0.48594   0.73530 
H          H       0.59692   0.52022   0.73530 
H          H       0.66341   0.54057   0.73530 
H          H       0.69062   0.65792   0.73530 
H          H       0.62325   0.63775   0.73530 
H          H       0.42374   0.40348   0.73530 
H          H       0.37755   0.33725   0.73530 
H          H       0.46687   0.30866   0.73530 
H          H       0.51425   0.37588   0.73530 
N          N       0.38960   0.61172   0.73530 
C          C       0.35560   0.60722   0.73530 
H          H       0.33023   0.57975   0.73530 
N          N       0.72181   0.61042   0.73530 
C          C       0.75107   0.64444   0.73530 
H          H       0.74879   0.66980   0.73530 
N          N       0.38847   0.27833   0.73530 
C          C       0.39293   0.24878   0.73530 
H          H       0.42040   0.25070   0.73530 
C          C       0.16488   0.86700   0.73530 
N          N       0.13239   0.83286   0.73530 
C          C       0.13335   0.79991   0.73530 
N          N       0.16755   0.80150   0.73530 
C          C       0.20041   0.83524   0.73530 
N          N       0.19868   0.86778   0.73530 
O          O       0.16171   0.90000   0.73530 
O          O       0.10054   0.76383   0.73530 
O          O       0.23652   0.83835   0.73530 
C          C       0.19219   0.93786   0.73530 
C          C       0.06257   0.75628   0.73530 
C          C       0.24406   0.80785   0.73530 
C          C       0.21665   0.76850   0.73530 
C          C       0.22821   0.74109   0.73530 
C          C       0.26687   0.75179   0.73530 
C          C       0.29425   0.79085   0.73530 
C          C       0.28274   0.81826   0.73530 
C          C       0.05045   0.78368   0.73530 
C          C       0.01154   0.77209   0.73530 
C          C       0.98383   0.73340   0.73530 
C          C       0.99572   0.70605   0.73530 
C          C       0.03456   0.71759   0.73530 
C          C       0.23155   0.94958   0.73530 
C          C       0.25896   0.98838   0.73530 
C          C       0.24825   0.01641   0.73530 
C          C       0.20919   0.00496   0.73530 
C          C       0.18178   0.96621   0.73530 
H          H       0.18661   0.75754   0.73530 
H          H       0.20691   0.71130   0.73530 
H          H       0.32427   0.80062   0.73530 
H          H       0.30415   0.84801   0.73530 
H          H       0.06937   0.81372   0.73530 
H          H       0.00289   0.79337   0.73530 
H          H       0.97567   0.67602   0.73530 
H          H       0.04305   0.69619   0.73530 
H          H       0.24256   0.93047   0.73530 
H          H       0.28875   0.99669   0.73530 
H          H       0.19942   0.02528   0.73530 
H          H       0.15204   0.95806   0.73530 
N          N       0.27670   0.72223   0.73530 
C          C       0.31070   0.72672   0.73530 
H          H       0.33606   0.75420   0.73530 
N          N       0.94449   0.72352   0.73530 
C          C       0.91522   0.68950   0.73530 
H          H       0.91751   0.66414   0.73530 
N          N       0.27783   0.05561   0.73530 
C          C       0.27336   0.08517   0.73530 
H          H       0.24589   0.08324   0.73530 
C          C       0.87190   0.67761   0.73530 
C          C       0.84384   0.63919   0.73530 
C          C       0.82246   0.69475   0.73530 
H          H       0.85168   0.61733   0.73530 
C          C       0.86085   0.70529   0.73530 
C          C       0.80545   0.62865   0.73530 
H          H       0.88199   0.73511   0.73530 
C          C       0.79439   0.65633   0.73530 
H          H       0.78430   0.59883   0.73530 
H          H       0.81461   0.71661   0.73530 
C          C       0.32254   0.69519   0.73530 
C          C       0.36095   0.70525   0.73530 
C          C       0.30534   0.62869   0.73530 
H          H       0.38283   0.73481   0.73530 
C          C       0.29484   0.65664   0.73530 
C          C       0.37145   0.67731   0.73530 
H          H       0.26503   0.64818   0.73530 
C          C       0.34375   0.63876   0.73530 
H          H       0.40126   0.68576   0.73530 
H          H       0.28346   0.59913   0.73530 
C          C       0.30491   0.12834   0.73530 
C          C       0.29487   0.15677   0.73530 
C          C       0.37142   0.17717   0.73530 
H          H       0.26532   0.14930   0.73530 
C          C       0.34345   0.13891   0.73530 
C          C       0.32284   0.19503   0.73530 
H          H       0.35189   0.11748   0.73530 
C          C       0.36138   0.20560   0.73530 
H          H       0.31440   0.21646   0.73530 
H          H       0.40097   0.18464   0.73530 
C          C       0.50141   0.46694   1.23530 
N          N       0.53391   0.50109   1.23530 
C          C       0.53294   0.53403   1.23530 
N          N       0.49874   0.53244   1.23530 
C          C       0.46588   0.49871   1.23530 
N          N       0.46761   0.46617   1.23530 
O          O       0.50459   0.43395   1.23530 
O          O       0.56576   0.57011   1.23530 
O          O       0.42977   0.49560   1.23530 
C          C       0.47410   0.39609   1.23530 
C          C       0.60372   0.57766   1.23530 
C          C       0.42224   0.52609   1.23530 
C          C       0.44964   0.56544   1.23530 
C          C       0.43809   0.59285   1.23530 
C          C       0.39942   0.58215   1.23530 
C          C       0.37205   0.54309   1.23530 
C          C       0.38356   0.51569   1.23530 
C          C       0.61585   0.55026   1.23530 
C          C       0.65476   0.56185   1.23530 
C          C       0.68247   0.60054   1.23530 
C          C       0.67058   0.62789   1.23530 
C          C       0.63173   0.61635   1.23530 
C          C       0.43474   0.38436   1.23530 
C          C       0.40734   0.34556   1.23530 
C          C       0.41804   0.31753   1.23530 
C          C       0.45710   0.32898   1.23530 
C          C       0.48451   0.36774   1.23530 
H          H       0.47969   0.57640   1.23530 
H          H       0.45938   0.62265   1.23530 
H          H       0.34202   0.53332   1.23530 
H          H       0.36214   0.48594   1.23530 
H          H       0.59692   0.52022   1.23530 
H          H       0.66341   0.54057   1.23530 
H          H       0.69062   0.65792   1.23530 
H          H       0.62325   0.63775   1.23530 
H          H       0.42374   0.40348   1.23530 
H          H       0.37755   0.33725   1.23530 
H          H       0.46687   0.30866   1.23530 
H          H       0.51425   0.37588   1.23530 
N          N       0.38960   0.61172   1.23530 
C          C       0.35560   0.60722   1.23530 
H          H       0.33023   0.57975   1.23530 
N          N       0.72181   0.61042   1.23530 
C          C       0.75107   0.64444   1.23530 
H          H       0.74879   0.66980   1.23530 
N          N       0.38847   0.27833   1.23530 
C          C       0.39293   0.24878   1.23530 
H          H       0.42040   0.25070   1.23530 
C          C       0.16488   0.86700   1.23530 
N          N       0.13239   0.83286   1.23530 
C          C       0.13335   0.79991   1.23530 
N          N       0.16755   0.80150   1.23530 
C          C       0.20041   0.83524   1.23530 
N          N       0.19868   0.86778   1.23530 
O          O       0.16171   0.90000   1.23530 
O          O       0.10054   0.76383   1.23530 
O          O       0.23652   0.83835   1.23530 
C          C       0.19219   0.93786   1.23530 
C          C       0.06257   0.75628   1.23530 
C          C       0.24406   0.80785   1.23530 
C          C       0.21665   0.76850   1.23530 
C          C       0.22821   0.74109   1.23530 
C          C       0.26687   0.75179   1.23530 
C          C       0.29425   0.79085   1.23530 
C          C       0.28274   0.81826   1.23530 
C          C       0.05045   0.78368   1.23530 
C          C       0.01154   0.77209   1.23530 
C          C       0.98383   0.73340   1.23530 
C          C       0.99572   0.70605   1.23530 
C          C       0.03456   0.71759   1.23530 
C          C       0.23155   0.94958   1.23530 
C          C       0.25896   0.98838   1.23530 
C          C       0.24825   0.01641   1.23530 
C          C       0.20919   0.00496   1.23530 
C          C       0.18178   0.96621   1.23530 
H          H       0.18661   0.75754   1.23530 
H          H       0.20691   0.71130   1.23530 
H          H       0.32427   0.80062   1.23530 
H          H       0.30415   0.84801   1.23530 
H          H       0.06937   0.81372   1.23530 
H          H       0.00289   0.79337   1.23530 
H          H       0.97567   0.67602   1.23530 
H          H       0.04305   0.69619   1.23530 
H          H       0.24256   0.93047   1.23530 
H          H       0.28875   0.99669   1.23530 
H          H       0.19942   0.02528   1.23530 
H          H       0.15204   0.95806   1.23530 
N          N       0.27670   0.72223   1.23530 
C          C       0.31070   0.72672   1.23530 
H          H       0.33606   0.75420   1.23530 
N          N       0.94449   0.72352   1.23530 
C          C       0.91522   0.68950   1.23530 
H          H       0.91751   0.66414   1.23530 
N          N       0.27783   0.05561   1.23530 
C          C       0.27336   0.08517   1.23530 
H          H       0.24589   0.08324   1.23530 
C          C       0.87190   0.67761   1.23530 
C          C       0.84384   0.63919   1.23530 
C          C       0.82246   0.69475   1.23530 
H          H       0.85168   0.61733   1.23530 
C          C       0.86085   0.70529   1.23530 
C          C       0.80545   0.62865   1.23530 
H          H       0.88199   0.73511   1.23530 
C          C       0.79439   0.65633   1.23530 
H          H       0.78430   0.59883   1.23530 
H          H       0.81461   0.71661   1.23530 
C          C       0.32254   0.69519   1.23530 
C          C       0.36095   0.70525   1.23530 
C          C       0.30534   0.62869   1.23530 
H          H       0.38283   0.73481   1.23530 
C          C       0.29484   0.65664   1.23530 
C          C       0.37145   0.67731   1.23530 
H          H       0.26503   0.64818   1.23530 
C          C       0.34375   0.63876   1.23530 
H          H       0.40126   0.68576   1.23530 
H          H       0.28346   0.59913   1.23530 
C          C       0.30491   0.12834   1.23530 
C          C       0.29487   0.15677   1.23530 
C          C       0.37142   0.17717   1.23530 
H          H       0.26532   0.14930   1.23530 
C          C       0.34345   0.13891   1.23530 
C          C       0.32284   0.19503   1.23530 
H          H       0.35189   0.11748   1.23530 
C          C       0.36138   0.20560   1.23530 
H          H       0.31440   0.21646   1.23530 
H          H       0.40097   0.18464   1.23530 
