data_crystal
 
_cell_length_a    28.87020
_cell_length_b    28.90150
_cell_length_c    6.80000
_cell_angle_alpha 90.00000
_cell_angle_beta  90.00000
_cell_angle_gamma 119.91460
 
_space_group_name_Hall 'P 1'
_space_group_name_H-M_alt  'P 1'
 
loop_
_symmetry_equiv_pos_as_xyz
 'x,y,z' 
 
loop_
_atom_site_label
_atom_site_type_symbol
_atom_site_fract_x
_atom_site_fract_y
_atom_site_fract_z
C          C       0.50292   0.45393   0.73530 
N          N       0.54831   0.50256   0.73530 
C          C       0.54603   0.54849   0.73530 
N          N       0.49732   0.54521   0.73530 
C          C       0.45140   0.49714   0.73530 
N          N       0.45476   0.45180   0.73530 
O          O       0.50835   0.40800   0.73530 
O          O       0.59182   0.59984   0.73530 
O          O       0.40000   0.49168   0.73530 
C          C       0.46593   0.35425   0.73530 
C          C       0.64574   0.61154   0.73530 
C          C       0.38843   0.53398   0.73530 
C          C       0.42642   0.58972   0.73530 
C          C       0.40919   0.62760   0.73530 
C          C       0.35437   0.61148   0.73530 
C          C       0.31642   0.55615   0.73530 
C          C       0.33357   0.51827   0.73530 
C          C       0.66377   0.57370   0.73530 
C          C       0.71892   0.59107   0.73530 
C          C       0.75737   0.64589   0.73530 
C          C       0.73967   0.68367   0.73530 
C          C       0.68461   0.66638   0.73530 
C          C       0.41014   0.33668   0.73530 
C          C       0.37214   0.28171   0.73530 
C          C       0.38816   0.24294   0.73530 
C          C       0.44353   0.26012   0.73530 
C          C       0.48154   0.31503   0.73530 
H          H       0.46895   0.60594   0.73530 
H          H       0.43874   0.66982   0.73530 
H          H       0.27388   0.54159   0.73530 
H          H       0.30386   0.47612   0.73530 
H          H       0.63761   0.53120   0.73530 
H          H       0.73184   0.56165   0.73530 
H          H       0.76742   0.72618   0.73530 
H          H       0.67192   0.69596   0.73530 
H          H       0.39393   0.36300   0.73530 
H          H       0.32989   0.26919   0.73530 
H          H       0.45801   0.23208   0.73530 
H          H       0.52372   0.32731   0.73530 
N          N       0.33955   0.65241   0.73530 
C          C       0.29121   0.64509   0.73530 
H          H       0.25580   0.60598   0.73530 
N          N       0.81318   0.66089   0.73530 
C          C       0.85397   0.70925   0.73530 
H          H       0.85001   0.74455   0.73530 
N          N       0.34708   0.18734   0.73530 
C          C       0.35425   0.14626   0.73530 
H          H       0.39336   0.14979   0.73530 
C          C       0.21173   0.82895   0.73530 
N          N       0.21574   0.87795   0.73530 
C          C       0.17137   0.88309   0.73530 
N          N       0.12239   0.83818   0.73530 
C          C       0.11730   0.78878   0.73530 
N          N       0.16230   0.78472   0.73530 
O          O       0.25950   0.82674   0.73530 
O          O       0.17337   0.93290   0.73530 
O          O       0.06745   0.74108   0.73530 
C          C       0.26340   0.77968   0.73530 
C          C       0.22027   0.98385   0.73530 
C          C       0.01646   0.73716   0.73530 
C          C       0.00608   0.78056   0.73530 
C          C       0.95310   0.77085   0.73530 
C          C       0.90940   0.71818   0.73530 
C          C       0.91941   0.67503   0.73530 
C          C       0.97228   0.68466   0.73530 
C          C       0.27408   0.99426   0.73530 
C          C       0.31716   0.04722   0.73530 
C          C       0.30796   0.09084   0.73530 
C          C       0.25475   0.08078   0.73530 
C          C       0.21171   0.02795   0.73530 
C          C       0.21993   0.72603   0.73530 
C          C       0.22962   0.68277   0.73530 
C          C       0.28232   0.69160   0.73530 
C          C       0.32555   0.74463   0.73530 
C          C       0.31594   0.78787   0.73530 
H          H       0.03665   0.82186   0.73530 
H          H       0.94621   0.80451   0.73530 
H          H       0.88667   0.63411   0.73530 
H          H       0.97905   0.65095   0.73530 
H          H       0.28492   0.96372   0.73530 
H          H       0.35774   0.05415   0.73530 
H          H       0.24639   0.11345   0.73530 
H          H       0.17119   0.02113   0.73530 
H          H       0.17859   0.71537   0.73530 
H          H       0.19591   0.64233   0.73530 
H          H       0.36650   0.75271   0.73530 
H          H       0.34971   0.82825   0.73530 
C          C       0.50292   0.45393   1.23530 
N          N       0.54831   0.50256   1.23530 
C          C       0.54603   0.54849   1.23530 
N          N       0.49732   0.54521   1.23530 
C          C       0.45140   0.49714   1.23530 
N          N       0.45476   0.45180   1.23530 
O          O       0.50835   0.40800   1.23530 
O          O       0.59182   0.59984   1.23530 
O          O       0.40000   0.49168   1.23530 
C          C       0.46593   0.35425   1.23530 
C          C       0.64574   0.61154   1.23530 
C          C       0.38843   0.53398   1.23530 
C          C       0.42642   0.58972   1.23530 
C          C       0.40919   0.62760   1.23530 
C          C       0.35437   0.61148   1.23530 
C          C       0.31642   0.55615   1.23530 
C          C       0.33357   0.51827   1.23530 
C          C       0.66377   0.57370   1.23530 
C          C       0.71892   0.59107   1.23530 
C          C       0.75737   0.64589   1.23530 
C          C       0.73967   0.68367   1.23530 
C          C       0.68461   0.66638   1.23530 
C          C       0.41014   0.33668   1.23530 
C          C       0.37214   0.28171   1.23530 
C          C       0.38816   0.24294   1.23530 
C          C       0.44353   0.26012   1.23530 
C          C       0.48154   0.31503   1.23530 
H          H       0.46895   0.60594   1.23530 
H          H       0.43874   0.66982   1.23530 
H          H       0.27388   0.54159   1.23530 
H          H       0.30386   0.47612   1.23530 
H          H       0.63761   0.53120   1.23530 
H          H       0.73184   0.56165   1.23530 
H          H       0.76742   0.72618   1.23530 
H          H       0.67192   0.69596   1.23530 
H          H       0.39393   0.36300   1.23530 
H          H       0.32989   0.26919   1.23530 
H          H       0.45801   0.23208   1.23530 
H          H       0.52372   0.32731   1.23530 
N          N       0.33955   0.65241   1.23530 
C          C       0.29121   0.64509   1.23530 
H          H       0.25580   0.60598   1.23530 
N          N       0.81318   0.66089   1.23530 
C          C       0.85397   0.70925   1.23530 
H          H       0.85001   0.74455   1.23530 
N          N       0.34708   0.18734   1.23530 
C          C       0.35425   0.14626   1.23530 
H          H       0.39336   0.14979   1.23530 
C          C       0.21173   0.82895   1.23530 
N          N       0.21574   0.87795   1.23530 
C          C       0.17137   0.88309   1.23530 
N          N       0.12239   0.83818   1.23530 
C          C       0.11730   0.78878   1.23530 
N          N       0.16230   0.78472   1.23530 
O          O       0.25950   0.82674   1.23530 
O          O       0.17337   0.93290   1.23530 
O          O       0.06745   0.74108   1.23530 
C          C       0.26340   0.77968   1.23530 
C          C       0.22027   0.98385   1.23530 
C          C       0.01646   0.73716   1.23530 
C          C       0.00608   0.78056   1.23530 
C          C       0.95310   0.77085   1.23530 
C          C       0.90940   0.71818   1.23530 
C          C       0.91941   0.67503   1.23530 
C          C       0.97228   0.68466   1.23530 
C          C       0.27408   0.99426   1.23530 
C          C       0.31716   0.04722   1.23530 
C          C       0.30796   0.09084   1.23530 
C          C       0.25475   0.08078   1.23530 
C          C       0.21171   0.02795   1.23530 
C          C       0.21993   0.72603   1.23530 
C          C       0.22962   0.68277   1.23530 
C          C       0.28232   0.69160   1.23530 
C          C       0.32555   0.74463   1.23530 
C          C       0.31594   0.78787   1.23530 
H          H       0.03665   0.82186   1.23530 
H          H       0.94621   0.80451   1.23530 
H          H       0.88667   0.63411   1.23530 
H          H       0.97905   0.65095   1.23530 
H          H       0.28492   0.96372   1.23530 
H          H       0.35774   0.05415   1.23530 
H          H       0.24639   0.11345   1.23530 
H          H       0.17119   0.02113   1.23530 
H          H       0.17859   0.71537   1.23530 
H          H       0.19591   0.64233   1.23530 
H          H       0.36650   0.75271   1.23530 
H          H       0.34971   0.82825   1.23530 
