data_crystal
 
_cell_length_a    14.94670
_cell_length_b    14.94670
_cell_length_c    6.88360
_cell_angle_alpha 90.00000
_cell_angle_beta  90.00000
_cell_angle_gamma 120.00000
 
_symmetry_space_group_name_Hall 'P 1'
_symmetry_space_group_name_H-M  'P 1'
 
loop_
_symmetry_equiv_pos_as_xyz
 'x,y,z' 
 
loop_
_atom_site_label
_atom_site_type_symbol
_atom_site_fract_x
_atom_site_fract_y
_atom_site_fract_z
_atom_site_charge
C          C       0.22942   0.60034   0.25000   0.0000000000
N          N       0.26883   0.70361   0.25000   0.0000000000
H          H       0.08834   0.65957   0.25000   0.0000000000
C          C       0.10668   0.35921   0.25000   0.0000000000
H          H       0.18749   0.39298   0.25000   0.0000000000
C          C       0.05322   0.25204   0.25000   0.0000000000
H          H       0.09492   0.21008   0.25000   0.0000000000
C          C       0.94399   0.36151   0.25000   0.0000000000
C          C       0.11226   0.52870   0.25000   0.0000000000
C          C       0.05320   0.57739   0.25000   0.0000000000
C          C       0.39966   0.62908   0.25000   0.0000000000
N          N       0.29639   0.56522   0.25000   0.0000000000
H          H       0.34043   0.42877   0.25000   0.0000000000
C          C       0.64079   0.74747   0.25000   0.0000000000
H          H       0.60702   0.79451   0.25000   0.0000000000
C          C       0.74796   0.80118   0.25000   0.0000000000
H          H       0.78992   0.88484   0.25000   0.0000000000
C          C       0.63849   0.58248   0.25000   0.0000000000
C          C       0.47130   0.58356   0.25000   0.0000000000
C          C       0.42261   0.47581   0.25000   0.0000000000
C          C       0.37092   0.77058   0.25000   0.0000000000
N          N       0.43478   0.73117   0.25000   0.0000000000
H          H       0.57123   0.91166   0.25000   0.0000000000
C          C       0.25253   0.89332   0.25000   0.0000000000
H          H       0.20549   0.81251   0.25000   0.0000000000
C          C       0.19882   0.94678   0.25000   0.0000000000
H          H       0.11516   0.90508   0.25000   0.0000000000
C          C       0.41752   0.05601   0.25000   0.0000000000
C          C       0.41644   0.88774   0.25000   0.0000000000
C          C       0.52419   0.94680   0.25000   0.0000000000
C          C       0.60034   0.22942   0.25000   0.0000000000
N          N       0.70361   0.26883   0.25000   0.0000000000
H          H       0.65957   0.08834   0.25000   0.0000000000
C          C       0.35921   0.10668   0.25000   0.0000000000
H          H       0.39298   0.18749   0.25000   0.0000000000
C          C       0.25204   0.05322   0.25000   0.0000000000
H          H       0.21008   0.09492   0.25000   0.0000000000
C          C       0.36151   0.94399   0.25000   0.0000000000
C          C       0.52870   0.11226   0.25000   0.0000000000
C          C       0.57739   0.05320   0.25000   0.0000000000
C          C       0.62908   0.39966   0.25000   0.0000000000
N          N       0.56522   0.29639   0.25000   0.0000000000
H          H       0.42877   0.34043   0.25000   0.0000000000
C          C       0.74747   0.64079   0.25000   0.0000000000
H          H       0.79451   0.60702   0.25000   0.0000000000
C          C       0.80118   0.74796   0.25000   0.0000000000
H          H       0.88484   0.78992   0.25000   0.0000000000
C          C       0.58248   0.63849   0.25000   0.0000000000
C          C       0.58356   0.47130   0.25000   0.0000000000
C          C       0.47581   0.42261   0.25000   0.0000000000
C          C       0.77058   0.37092   0.25000   0.0000000000
N          N       0.73117   0.43478   0.25000   0.0000000000
H          H       0.91166   0.57123   0.25000   0.0000000000
C          C       0.89332   0.25253   0.25000   0.0000000000
H          H       0.81251   0.20549   0.25000   0.0000000000
C          C       0.94678   0.19882   0.25000   0.0000000000
H          H       0.90508   0.11516   0.25000   0.0000000000
C          C       0.05601   0.41752   0.25000   0.0000000000
C          C       0.88774   0.41644   0.25000   0.0000000000
C          C       0.94680   0.52419   0.25000   0.0000000000
C          C       0.22942   0.60034   0.75000   0.0000000000
N          N       0.26883   0.70361   0.75000   0.0000000000
H          H       0.08834   0.65957   0.75000   0.0000000000
C          C       0.10668   0.35921   0.75000   0.0000000000
H          H       0.18749   0.39298   0.75000   0.0000000000
C          C       0.05322   0.25204   0.75000   0.0000000000
H          H       0.09492   0.21008   0.75000   0.0000000000
C          C       0.94399   0.36151   0.75000   0.0000000000
C          C       0.11226   0.52870   0.75000   0.0000000000
C          C       0.05320   0.57739   0.75000   0.0000000000
C          C       0.39966   0.62908   0.75000   0.0000000000
N          N       0.29639   0.56522   0.75000   0.0000000000
H          H       0.34043   0.42877   0.75000   0.0000000000
C          C       0.64079   0.74747   0.75000   0.0000000000
H          H       0.60702   0.79451   0.75000   0.0000000000
C          C       0.74796   0.80118   0.75000   0.0000000000
H          H       0.78992   0.88484   0.75000   0.0000000000
C          C       0.63849   0.58248   0.75000   0.0000000000
C          C       0.47130   0.58356   0.75000   0.0000000000
C          C       0.42261   0.47581   0.75000   0.0000000000
C          C       0.37092   0.77058   0.75000   0.0000000000
N          N       0.43478   0.73117   0.75000   0.0000000000
H          H       0.57123   0.91166   0.75000   0.0000000000
C          C       0.25253   0.89332   0.75000   0.0000000000
H          H       0.20549   0.81251   0.75000   0.0000000000
C          C       0.19882   0.94678   0.75000   0.0000000000
H          H       0.11516   0.90508   0.75000   0.0000000000
C          C       0.41752   0.05601   0.75000   0.0000000000
C          C       0.41644   0.88774   0.75000   0.0000000000
C          C       0.52419   0.94680   0.75000   0.0000000000
C          C       0.60034   0.22942   0.75000   0.0000000000
N          N       0.70361   0.26883   0.75000   0.0000000000
H          H       0.65957   0.08834   0.75000   0.0000000000
C          C       0.35921   0.10668   0.75000   0.0000000000
H          H       0.39298   0.18749   0.75000   0.0000000000
C          C       0.25204   0.05322   0.75000   0.0000000000
H          H       0.21008   0.09492   0.75000   0.0000000000
C          C       0.36151   0.94399   0.75000   0.0000000000
C          C       0.52870   0.11226   0.75000   0.0000000000
C          C       0.57739   0.05320   0.75000   0.0000000000
C          C       0.62908   0.39966   0.75000   0.0000000000
N          N       0.56522   0.29639   0.75000   0.0000000000
H          H       0.42877   0.34043   0.75000   0.0000000000
C          C       0.74747   0.64079   0.75000   0.0000000000
H          H       0.79451   0.60702   0.75000   0.0000000000
C          C       0.80118   0.74796   0.75000   0.0000000000
H          H       0.88484   0.78992   0.75000   0.0000000000
C          C       0.58248   0.63849   0.75000   0.0000000000
C          C       0.58356   0.47130   0.75000   0.0000000000
C          C       0.47581   0.42261   0.75000   0.0000000000
C          C       0.77058   0.37092   0.75000   0.0000000000
N          N       0.73117   0.43478   0.75000   0.0000000000
H          H       0.91166   0.57123   0.75000   0.0000000000
C          C       0.89332   0.25253   0.75000   0.0000000000
H          H       0.81251   0.20549   0.75000   0.0000000000
C          C       0.94678   0.19882   0.75000   0.0000000000
H          H       0.90508   0.11516   0.75000   0.0000000000
C          C       0.05601   0.41752   0.75000   0.0000000000
C          C       0.88774   0.41644   0.75000   0.0000000000
C          C       0.94680   0.52419   0.75000   0.0000000000
