data_crystal

_cell_length_a    11.15200
_cell_length_b    11.15200
_cell_length_c    6.99920
_cell_angle_alpha 90.00000
_cell_angle_beta  90.00000
_cell_angle_gamma 120.00000

_space_group_name_Hall 'P 1'
_space_group_name_H-M_alt  'P 1'

loop_
_symmetry_equiv_pos_as_xyz
'x,y,z' 

loop_
_atom_site_label
_atom_site_type_symbol
_atom_site_fract_x
_atom_site_fract_y
_atom_site_fract_z
C          C       0.80574   0.38263   0.25000 
C          C       0.61738   0.42311   0.25000 
C          C       0.57689   0.19427   0.25000 
C          C       0.19427   0.61738   0.25000 
C          C       0.38263   0.57689   0.25000 
C          C       0.42311   0.80574   0.25000 
N          N       0.71544   0.24472   0.25000 
N          N       0.75529   0.47073   0.25000 
N          N       0.52928   0.28456   0.25000 
N          N       0.28456   0.75529   0.25000 
N          N       0.24472   0.52928   0.25000 
N          N       0.47073   0.71544   0.25000 
C          C       0.48151   0.05187   0.25000 
C          C       0.94814   0.42964   0.25000 
C          C       0.57036   0.51850   0.25000 
C          C       0.51850   0.94814   0.25000 
C          C       0.05187   0.57036   0.25000 
C          C       0.42964   0.48151   0.25000 
H          H       0.37882   0.02301   0.25000 
H          H       0.97700   0.35581   0.25000 
H          H       0.64419   0.62119   0.25000 
H          H       0.62119   0.97700   0.25000 
H          H       0.02301   0.64419   0.25000 
H          H       0.35581   0.37882   0.25000 
C          C       0.80574   0.38263   0.75000 
C          C       0.61738   0.42311   0.75000 
C          C       0.57689   0.19427   0.75000 
C          C       0.19427   0.61738   0.75000 
C          C       0.38263   0.57689   0.75000 
C          C       0.42311   0.80574   0.75000 
N          N       0.71544   0.24472   0.75000 
N          N       0.75529   0.47073   0.75000 
N          N       0.52928   0.28456   0.75000 
N          N       0.28456   0.75529   0.75000 
N          N       0.24472   0.52928   0.75000 
N          N       0.47073   0.71544   0.75000 
C          C       0.48151   0.05187   0.75000 
C          C       0.94814   0.42964   0.75000 
C          C       0.57036   0.51850   0.75000 
C          C       0.51850   0.94814   0.75000 
C          C       0.05187   0.57036   0.75000 
C          C       0.42964   0.48151   0.75000 
H          H       0.37882   0.02301   0.75000 
H          H       0.97700   0.35581   0.75000 
H          H       0.64419   0.62119   0.75000 
H          H       0.62119   0.97700   0.75000 
H          H       0.02301   0.64419   0.75000 
H          H       0.35581   0.37882   0.75000 
