data_crystal

_cell_length_a    37.51490
_cell_length_b    37.51490
_cell_length_c    7.07100
_cell_angle_alpha 90.00000
_cell_angle_beta  90.00000
_cell_angle_gamma 120.00000

_space_group_name_Hall 'P 1'
_space_group_name_H-M_alt  'P 1'

loop_
_symmetry_equiv_pos_as_xyz
'x,y,z' 

loop_
_atom_site_label
_atom_site_type_symbol
_atom_site_fract_x
_atom_site_fract_y
_atom_site_fract_z
N          N       0.45976   0.54519   0.25000 
N          N       0.45481   0.91456   0.25000 
N          N       0.08544   0.54024   0.25000 
N          N       0.54024   0.45481   0.25000 
N          N       0.54519   0.08544   0.25000 
N          N       0.91456   0.45976   0.25000 
C          C       0.47293   0.58601   0.25000 
C          C       0.41399   0.88692   0.25000 
C          C       0.11308   0.52707   0.25000 
C          C       0.52707   0.41399   0.25000 
C          C       0.58601   0.11308   0.25000 
C          C       0.88692   0.47293   0.25000 
C          C       0.48078   0.52454   0.25000 
C          C       0.47546   0.95624   0.25000 
C          C       0.04376   0.51922   0.25000 
C          C       0.51922   0.47546   0.25000 
C          C       0.52454   0.04376   0.25000 
C          C       0.95624   0.48078   0.25000 
C          C       0.52415   0.54314   0.25000 
C          C       0.45686   0.98101   0.25000 
C          C       0.01899   0.47585   0.25000 
C          C       0.47585   0.45686   0.25000 
C          C       0.54314   0.01899   0.25000 
C          C       0.98101   0.52415   0.25000 
C          C       0.54302   0.51875   0.25000 
C          C       0.48125   0.02427   0.25000 
C          C       0.97573   0.45698   0.25000 
C          C       0.45698   0.48125   0.25000 
C          C       0.51875   0.97573   0.25000 
C          C       0.02427   0.54302   0.25000 
H          H       0.50380   0.60663   0.25000 
H          H       0.39337   0.89717   0.25000 
H          H       0.10283   0.49620   0.25000 
H          H       0.49620   0.39337   0.25000 
H          H       0.60663   0.10283   0.25000 
H          H       0.89717   0.50380   0.25000 
H          H       0.54235   0.57436   0.25000 
H          H       0.42564   0.96799   0.25000 
H          H       0.03201   0.45765   0.25000 
H          H       0.45765   0.42564   0.25000 
H          H       0.57436   0.03201   0.25000 
H          H       0.96799   0.54235   0.25000 
H          H       0.42558   0.46729   0.25000 
H          H       0.53271   0.95829   0.25000 
H          H       0.04171   0.57442   0.25000 
H          H       0.57442   0.53271   0.25000 
H          H       0.46729   0.04171   0.25000 
H          H       0.95829   0.42558   0.25000 
C          C       0.34969   0.71104   0.25000 
C          C       0.28896   0.63865   0.25000 
C          C       0.36135   0.65031   0.25000 
C          C       0.65031   0.28896   0.25000 
C          C       0.71104   0.36135   0.25000 
C          C       0.63865   0.34969   0.25000 
C          C       0.30694   0.68208   0.25000 
C          C       0.31792   0.62485   0.25000 
C          C       0.37515   0.69306   0.25000 
C          C       0.69306   0.31792   0.25000 
C          C       0.68208   0.37515   0.25000 
C          C       0.62485   0.30694   0.25000 
C          C       0.36598   0.75515   0.25000 
C          C       0.24485   0.61083   0.25000 
C          C       0.38917   0.63402   0.25000 
C          C       0.63402   0.24485   0.25000 
C          C       0.75515   0.38917   0.25000 
C          C       0.61083   0.36598   0.25000 
C          C       0.37539   0.59094   0.25000 
C          C       0.40906   0.78445   0.25000 
C          C       0.21555   0.62461   0.25000 
C          C       0.62461   0.40906   0.25000 
C          C       0.59094   0.21555   0.25000 
C          C       0.78445   0.37539   0.25000 
C          C       0.40225   0.57493   0.25000 
C          C       0.42507   0.82732   0.25000 
C          C       0.17268   0.59775   0.25000 
C          C       0.59775   0.42507   0.25000 
C          C       0.57493   0.17268   0.25000 
C          C       0.82732   0.40225   0.25000 
C          C       0.44527   0.60113   0.25000 
C          C       0.39887   0.84413   0.25000 
C          C       0.15587   0.55473   0.25000 
C          C       0.55473   0.39887   0.25000 
C          C       0.60113   0.15587   0.25000 
C          C       0.84413   0.44527   0.25000 
C          C       0.46014   0.64383   0.25000 
C          C       0.35617   0.81631   0.25000 
C          C       0.18369   0.53986   0.25000 
C          C       0.53986   0.35617   0.25000 
C          C       0.64383   0.18369   0.25000 
C          C       0.81631   0.46014   0.25000 
C          C       0.43298   0.65948   0.25000 
C          C       0.34052   0.77350   0.25000 
C          C       0.22650   0.56702   0.25000 
C          C       0.56702   0.34052   0.25000 
C          C       0.65948   0.22650   0.25000 
C          C       0.77350   0.43298   0.25000 
H          H       0.34505   0.56929   0.25000 
H          H       0.43071   0.77576   0.25000 
H          H       0.22424   0.65495   0.25000 
H          H       0.65495   0.43071   0.25000 
H          H       0.56929   0.22424   0.25000 
H          H       0.77576   0.34505   0.25000 
H          H       0.39001   0.54366   0.25000 
H          H       0.45634   0.84635   0.25000 
H          H       0.15365   0.60999   0.25000 
H          H       0.60999   0.45634   0.25000 
H          H       0.54366   0.15365   0.25000 
H          H       0.84635   0.39001   0.25000 
H          H       0.49117   0.66418   0.25000 
H          H       0.33582   0.82699   0.25000 
H          H       0.17301   0.50883   0.25000 
H          H       0.50883   0.33582   0.25000 
H          H       0.66418   0.17301   0.25000 
H          H       0.82699   0.49117   0.25000 
H          H       0.44708   0.69069   0.25000 
H          H       0.30931   0.75639   0.25000 
H          H       0.24361   0.55292   0.25000 
H          H       0.55292   0.30931   0.25000 
H          H       0.69069   0.24361   0.25000 
H          H       0.75639   0.44708   0.25000 
H          H       0.28775   0.69335   0.25000 
H          H       0.30665   0.59440   0.25000 
H          H       0.40560   0.71225   0.25000 
H          H       0.71225   0.30665   0.25000 
H          H       0.69335   0.40560   0.25000 
H          H       0.59440   0.28775   0.25000 
N          N       0.45976   0.54519   0.75000 
N          N       0.45481   0.91456   0.75000 
N          N       0.08544   0.54024   0.75000 
N          N       0.54024   0.45481   0.75000 
N          N       0.54519   0.08544   0.75000 
N          N       0.91456   0.45976   0.75000 
C          C       0.47293   0.58601   0.75000 
C          C       0.41399   0.88692   0.75000 
C          C       0.11308   0.52707   0.75000 
C          C       0.52707   0.41399   0.75000 
C          C       0.58601   0.11308   0.75000 
C          C       0.88692   0.47293   0.75000 
C          C       0.48078   0.52454   0.75000 
C          C       0.47546   0.95624   0.75000 
C          C       0.04376   0.51922   0.75000 
C          C       0.51922   0.47546   0.75000 
C          C       0.52454   0.04376   0.75000 
C          C       0.95624   0.48078   0.75000 
C          C       0.52415   0.54314   0.75000 
C          C       0.45686   0.98101   0.75000 
C          C       0.01899   0.47585   0.75000 
C          C       0.47585   0.45686   0.75000 
C          C       0.54314   0.01899   0.75000 
C          C       0.98101   0.52415   0.75000 
C          C       0.54302   0.51875   0.75000 
C          C       0.48125   0.02427   0.75000 
C          C       0.97573   0.45698   0.75000 
C          C       0.45698   0.48125   0.75000 
C          C       0.51875   0.97573   0.75000 
C          C       0.02427   0.54302   0.75000 
H          H       0.50380   0.60663   0.75000 
H          H       0.39337   0.89717   0.75000 
H          H       0.10283   0.49620   0.75000 
H          H       0.49620   0.39337   0.75000 
H          H       0.60663   0.10283   0.75000 
H          H       0.89717   0.50380   0.75000 
H          H       0.54235   0.57436   0.75000 
H          H       0.42564   0.96799   0.75000 
H          H       0.03201   0.45765   0.75000 
H          H       0.45765   0.42564   0.75000 
H          H       0.57436   0.03201   0.75000 
H          H       0.96799   0.54235   0.75000 
H          H       0.42558   0.46729   0.75000 
H          H       0.53271   0.95829   0.75000 
H          H       0.04171   0.57442   0.75000 
H          H       0.57442   0.53271   0.75000 
H          H       0.46729   0.04171   0.75000 
H          H       0.95829   0.42558   0.75000 
C          C       0.34969   0.71104   0.75000 
C          C       0.28896   0.63865   0.75000 
C          C       0.36135   0.65031   0.75000 
C          C       0.65031   0.28896   0.75000 
C          C       0.71104   0.36135   0.75000 
C          C       0.63865   0.34969   0.75000 
C          C       0.30694   0.68208   0.75000 
C          C       0.31792   0.62485   0.75000 
C          C       0.37515   0.69306   0.75000 
C          C       0.69306   0.31792   0.75000 
C          C       0.68208   0.37515   0.75000 
C          C       0.62485   0.30694   0.75000 
C          C       0.36598   0.75515   0.75000 
C          C       0.24485   0.61083   0.75000 
C          C       0.38917   0.63402   0.75000 
C          C       0.63402   0.24485   0.75000 
C          C       0.75515   0.38917   0.75000 
C          C       0.61083   0.36598   0.75000 
C          C       0.37539   0.59094   0.75000 
C          C       0.40906   0.78445   0.75000 
C          C       0.21555   0.62461   0.75000 
C          C       0.62461   0.40906   0.75000 
C          C       0.59094   0.21555   0.75000 
C          C       0.78445   0.37539   0.75000 
C          C       0.40225   0.57493   0.75000 
C          C       0.42507   0.82732   0.75000 
C          C       0.17268   0.59775   0.75000 
C          C       0.59775   0.42507   0.75000 
C          C       0.57493   0.17268   0.75000 
C          C       0.82732   0.40225   0.75000 
C          C       0.44527   0.60113   0.75000 
C          C       0.39887   0.84413   0.75000 
C          C       0.15587   0.55473   0.75000 
C          C       0.55473   0.39887   0.75000 
C          C       0.60113   0.15587   0.75000 
C          C       0.84413   0.44527   0.75000 
C          C       0.46014   0.64383   0.75000 
C          C       0.35617   0.81631   0.75000 
C          C       0.18369   0.53986   0.75000 
C          C       0.53986   0.35617   0.75000 
C          C       0.64383   0.18369   0.75000 
C          C       0.81631   0.46014   0.75000 
C          C       0.43298   0.65948   0.75000 
C          C       0.34052   0.77350   0.75000 
C          C       0.22650   0.56702   0.75000 
C          C       0.56702   0.34052   0.75000 
C          C       0.65948   0.22650   0.75000 
C          C       0.77350   0.43298   0.75000 
H          H       0.34505   0.56929   0.75000 
H          H       0.43071   0.77576   0.75000 
H          H       0.22424   0.65495   0.75000 
H          H       0.65495   0.43071   0.75000 
H          H       0.56929   0.22424   0.75000 
H          H       0.77576   0.34505   0.75000 
H          H       0.39001   0.54366   0.75000 
H          H       0.45634   0.84635   0.75000 
H          H       0.15365   0.60999   0.75000 
H          H       0.60999   0.45634   0.75000 
H          H       0.54366   0.15365   0.75000 
H          H       0.84635   0.39001   0.75000 
H          H       0.49117   0.66418   0.75000 
H          H       0.33582   0.82699   0.75000 
H          H       0.17301   0.50883   0.75000 
H          H       0.50883   0.33582   0.75000 
H          H       0.66418   0.17301   0.75000 
H          H       0.82699   0.49117   0.75000 
H          H       0.44708   0.69069   0.75000 
H          H       0.30931   0.75639   0.75000 
H          H       0.24361   0.55292   0.75000 
H          H       0.55292   0.30931   0.75000 
H          H       0.69069   0.24361   0.75000 
H          H       0.75639   0.44708   0.75000 
H          H       0.28775   0.69335   0.75000 
H          H       0.30665   0.59440   0.75000 
H          H       0.40560   0.71225   0.75000 
H          H       0.71225   0.30665   0.75000 
H          H       0.69335   0.40560   0.75000 
H          H       0.59440   0.28775   0.75000 
