data_crystal

_cell_length_a    24.42130
_cell_length_b    24.42060
_cell_length_c    13.52900
_cell_angle_alpha 90.00000
_cell_angle_beta  90.00000
_cell_angle_gamma 81.91170

_space_group_name_Hall 'P 1'
_space_group_name_H-M_alt  'P 1'

loop_
_symmetry_equiv_pos_as_xyz
'x,y,z' 

loop_
_atom_site_label
_atom_site_type_symbol
_atom_site_fract_x
_atom_site_fract_y
_atom_site_fract_z
C          C       0.48993   0.47428   0.25000 
C          C       0.02572   0.01007   0.25000 
C          C       0.51007   0.52572   0.25000 
C          C       0.97428   0.98993   0.25000 
C          C       0.57476   0.58706   0.25000 
C          C       0.91294   0.92524   0.25000 
C          C       0.42524   0.41294   0.25000 
C          C       0.08706   0.07476   0.25000 
C          C       0.56603   0.53215   0.25000 
C          C       0.96785   0.93397   0.25000 
C          C       0.43397   0.46785   0.25000 
C          C       0.03215   0.06603   0.25000 
C          C       0.52534   0.62305   0.25000 
C          C       0.87695   0.97465   0.25000 
C          C       0.47465   0.37695   0.25000 
C          C       0.12305   0.02535   0.25000 
C          C       0.62066   0.94013   0.25000 
C          C       0.55988   0.87934   0.25000 
C          C       0.37934   0.05987   0.25000 
C          C       0.44012   0.12066   0.25000 
C          C       0.65040   0.88695   0.25000 
C          C       0.61305   0.84959   0.25000 
C          C       0.34959   0.11304   0.25000 
C          C       0.38695   0.15041   0.25000 
H          H       0.69243   0.87669   0.25000 
H          H       0.62331   0.80756   0.25000 
H          H       0.30757   0.12331   0.25000 
H          H       0.37668   0.19243   0.25000 
N          N       0.55708   0.05707   0.25000 
N          N       0.44292   0.94293   0.25000 
C          C       0.61284   0.04327   0.25000 
C          C       0.45673   0.88716   0.25000 
C          C       0.38716   0.95673   0.25000 
C          C       0.54327   0.11284   0.25000 
C          C       0.63556   0.09262   0.25000 
C          C       0.40739   0.86444   0.25000 
C          C       0.36444   0.90738   0.25000 
C          C       0.59261   0.13556   0.25000 
H          H       0.67658   0.09698   0.25000 
H          H       0.40304   0.82341   0.25000 
H          H       0.32341   0.90302   0.25000 
H          H       0.59696   0.17659   0.25000 
C          C       0.64407   0.98987   0.25000 
C          C       0.51013   0.85593   0.25000 
C          C       0.35592   0.01013   0.25000 
C          C       0.48987   0.14406   0.25000 
C          C       0.70237   0.98586   0.25000 
C          C       0.51414   0.79764   0.25000 
C          C       0.29763   0.01414   0.25000 
C          C       0.48585   0.20236   0.25000 
C          C       0.73179   0.98397   0.15991 
C          C       0.51603   0.76822   0.34009 
C          C       0.26821   0.01603   0.15991 
C          C       0.48396   0.23178   0.34009 
C          C       0.26821   0.01603   0.34009 
C          C       0.48396   0.23178   0.15991 
C          C       0.73179   0.98397   0.34009 
C          C       0.51603   0.76822   0.15991 
H          H       0.71110   0.98541   0.09398 
H          H       0.51460   0.78891   0.40601 
H          H       0.28890   0.01459   0.09398 
H          H       0.48540   0.21108   0.40601 
H          H       0.28890   0.01459   0.40601 
H          H       0.48540   0.21108   0.09399 
H          H       0.71110   0.98541   0.40601 
H          H       0.51460   0.78891   0.09399 
C          C       0.78982   0.98028   0.15995 
C          C       0.51972   0.71018   0.34005 
C          C       0.21017   0.01972   0.15995 
C          C       0.48028   0.28982   0.34005 
C          C       0.21017   0.01972   0.34005 
C          C       0.48028   0.28982   0.15995 
C          C       0.78982   0.98028   0.34005 
C          C       0.51972   0.71018   0.15995 
H          H       0.81058   0.97922   0.09412 
H          H       0.52078   0.68943   0.40587 
H          H       0.18942   0.02078   0.09412 
H          H       0.47922   0.31057   0.40587 
H          H       0.18942   0.02078   0.40587 
H          H       0.47922   0.31057   0.09412 
H          H       0.81058   0.97922   0.40587 
H          H       0.52078   0.68943   0.09412 
C          C       0.81920   0.97831   0.25000 
C          C       0.52169   0.68080   0.25000 
C          C       0.18079   0.02169   0.25000 
C          C       0.47831   0.31920   0.25000 
H          H       0.61305   0.59943   0.25000 
H          H       0.59767   0.49993   0.25000 
H          H       0.90057   0.88695   0.25000 
H          H       0.00007   0.90233   0.25000 
H          H       0.38695   0.40057   0.25000 
H          H       0.40233   0.50006   0.25000 
H          H       0.09942   0.11305   0.25000 
H          H       0.99993   0.09767   0.25000 
S          S       0.53259   0.41055   0.25000 
S          S       0.08945   0.96741   0.25000 
S          S       0.46741   0.58945   0.25000 
S          S       0.91055   0.03259   0.25000 
N          N       0.56673   0.93327   0.25000 
N          N       0.43326   0.06673   0.25000 
H          H       0.53642   0.96357   0.25000 
H          H       0.46358   0.03643   0.25000 
C          C       0.48993   0.47428   0.75000 
C          C       0.02572   0.01007   0.75000 
C          C       0.51007   0.52572   0.75000 
C          C       0.97428   0.98993   0.75000 
C          C       0.57476   0.58706   0.75000 
C          C       0.91294   0.92524   0.75000 
C          C       0.42524   0.41294   0.75000 
C          C       0.08706   0.07476   0.75000 
C          C       0.56603   0.53215   0.75000 
C          C       0.96785   0.93397   0.75000 
C          C       0.43397   0.46785   0.75000 
C          C       0.03215   0.06603   0.75000 
C          C       0.52534   0.62305   0.75000 
C          C       0.87695   0.97465   0.75000 
C          C       0.47465   0.37695   0.75000 
C          C       0.12305   0.02535   0.75000 
C          C       0.62066   0.94013   0.75000 
C          C       0.55988   0.87934   0.75000 
C          C       0.37934   0.05987   0.75000 
C          C       0.44012   0.12066   0.75000 
C          C       0.65040   0.88695   0.75000 
C          C       0.61305   0.84959   0.75000 
C          C       0.34959   0.11304   0.75000 
C          C       0.38695   0.15041   0.75000 
H          H       0.69243   0.87669   0.75000 
H          H       0.62331   0.80756   0.75000 
H          H       0.30757   0.12331   0.75000 
H          H       0.37668   0.19243   0.75000 
N          N       0.55708   0.05707   0.75000 
N          N       0.44292   0.94293   0.75000 
C          C       0.61284   0.04327   0.75000 
C          C       0.45673   0.88716   0.75000 
C          C       0.38716   0.95673   0.75000 
C          C       0.54327   0.11284   0.75000 
C          C       0.63556   0.09262   0.75000 
C          C       0.40739   0.86444   0.75000 
C          C       0.36444   0.90738   0.75000 
C          C       0.59261   0.13556   0.75000 
H          H       0.67658   0.09698   0.75000 
H          H       0.40304   0.82341   0.75000 
H          H       0.32341   0.90302   0.75000 
H          H       0.59696   0.17659   0.75000 
C          C       0.64407   0.98987   0.75000 
C          C       0.51013   0.85593   0.75000 
C          C       0.35592   0.01013   0.75000 
C          C       0.48987   0.14406   0.75000 
C          C       0.70237   0.98586   0.75000 
C          C       0.51414   0.79764   0.75000 
C          C       0.29763   0.01414   0.75000 
C          C       0.48585   0.20236   0.75000 
C          C       0.73179   0.98397   0.65991 
C          C       0.51603   0.76822   0.84009 
C          C       0.26821   0.01603   0.65991 
C          C       0.48396   0.23178   0.84009 
C          C       0.26821   0.01603   0.84009 
C          C       0.48396   0.23178   0.65991 
C          C       0.73179   0.98397   0.84009 
C          C       0.51603   0.76822   0.65991 
H          H       0.71110   0.98541   0.59398 
H          H       0.51460   0.78891   0.90601 
H          H       0.28890   0.01459   0.59398 
H          H       0.48540   0.21108   0.90601 
H          H       0.28890   0.01459   0.90601 
H          H       0.48540   0.21108   0.59399 
H          H       0.71110   0.98541   0.90601 
H          H       0.51460   0.78891   0.59399 
C          C       0.78982   0.98028   0.65995 
C          C       0.51972   0.71018   0.84005 
C          C       0.21017   0.01972   0.65995 
C          C       0.48028   0.28982   0.84005 
C          C       0.21017   0.01972   0.84005 
C          C       0.48028   0.28982   0.65995 
C          C       0.78982   0.98028   0.84005 
C          C       0.51972   0.71018   0.65995 
H          H       0.81058   0.97922   0.59413 
H          H       0.52078   0.68943   0.90587 
H          H       0.18942   0.02078   0.59413 
H          H       0.47922   0.31057   0.90587 
H          H       0.18942   0.02078   0.90587 
H          H       0.47922   0.31057   0.59413 
H          H       0.81058   0.97922   0.90587 
H          H       0.52078   0.68943   0.59413 
C          C       0.81920   0.97831   0.75000 
C          C       0.52169   0.68080   0.75000 
C          C       0.18079   0.02169   0.75000 
C          C       0.47831   0.31920   0.75000 
H          H       0.61305   0.59943   0.75000 
H          H       0.59767   0.49993   0.75000 
H          H       0.90057   0.88695   0.75000 
H          H       0.00007   0.90233   0.75000 
H          H       0.38695   0.40057   0.75000 
H          H       0.40233   0.50006   0.75000 
H          H       0.09942   0.11305   0.75000 
H          H       0.99993   0.09767   0.75000 
S          S       0.53259   0.41055   0.75000 
S          S       0.08945   0.96741   0.75000 
S          S       0.46741   0.58945   0.75000 
S          S       0.91055   0.03259   0.75000 
N          N       0.56673   0.93327   0.75000 
N          N       0.43326   0.06673   0.75000 
H          H       0.53642   0.96357   0.75000 
H          H       0.46358   0.03643   0.75000 
