data_NUS-3
_audit_creation_date              0000-00-00
_audit_creation_method            'LanYouShi'
_symmetry_space_group_name_H-M    'P1'
_cell_length_a                    29.8530006
_cell_length_b                    29.8530006
_cell_length_c                    3.5999999
_cell_angle_alpha                 90.0000000
_cell_angle_beta                  90.0000000
_cell_angle_gamma                 60.0000000
loop_
_atom_site_label
_atom_site_type_symbol
_atom_site_fract_x
_atom_site_fract_y
_atom_site_fract_z
_atom_site_U_iso_or_equiv
_atom_site_adp_type
_atom_site_occupancy
        H1          H  0.3241235  0.6656193  1.1434139    0.00000       Uiso       1.00
        H2          H  0.3465619  0.5768908  1.6413389    0.00000       Uiso       1.00
        H3          H  0.6758779  0.3343821  1.1434139    0.00000       Uiso       1.00
        H4          H  0.6534395  0.4231106  1.6413389    0.00000       Uiso       1.00
        H5          H  0.6758779  0.3343821  1.6343639    0.00000       Uiso       1.00
        H6          H  0.6534395  0.4231106  1.1364388    0.00000       Uiso       1.00
        H7          H  0.3241235  0.6656193  1.6343639    0.00000       Uiso       1.00
        H8          H  0.3465619  0.5768908  1.1364388    0.00000       Uiso       1.00
        H9          H  0.7218235  0.3434629  1.3888890    0.00000       Uiso       1.00
       H10          H  0.5241622  0.4118524  1.3888890    0.00000       Uiso       1.00
       H11          H  0.5276690  0.6087494  1.3888890    0.00000       Uiso       1.00
       H12          H  0.5529869  0.6696883  1.3888890    0.00000       Uiso       1.00
        C1          C  0.4488353  0.5390130  1.3888890    0.00000       Uiso       1.00
        C2          C  0.4884278  0.5488628  1.3888890    0.00000       Uiso       1.00
        C3          C  0.5778901  0.5303005  1.3888890    0.00000       Uiso       1.00
        C4          C  0.5400237  0.5122426  1.3888890    0.00000       Uiso       1.00
        C5          C  0.5915308  0.6398030  1.3888890    0.00000       Uiso       1.00
        C6          C  0.6465001  0.4075081  1.3888890    0.00000       Uiso       1.00
        O1          O  0.5973063  0.4150409  1.3888890    0.00000       Uiso       1.00
        C7          C  0.6825300  0.3513859  1.3888890    0.00000       Uiso       1.00
        N1          N  0.5645097  0.5800813  1.3888890    0.00000       Uiso       1.00
        N2          N  0.6018201  0.5935515  1.3888890    0.00000       Uiso       1.00
        O2          O  0.6221923  0.5006514  1.3888890    0.00000       Uiso       1.00
       H13          H  0.2781779  0.6565385  1.3888890    0.00000       Uiso       1.00
       H14          H  0.4758392  0.5881490  1.3888890    0.00000       Uiso       1.00
       H15          H  0.4723324  0.3912520  1.3888890    0.00000       Uiso       1.00
       H16          H  0.4470145  0.3303132  1.3888890    0.00000       Uiso       1.00
        C8          C  0.5511662  0.4609884  1.3888890    0.00000       Uiso       1.00
        C9          C  0.5115737  0.4511386  1.3888890    0.00000       Uiso       1.00
       C10          C  0.4221114  0.4697009  1.3888890    0.00000       Uiso       1.00
       C11          C  0.4599777  0.4877588  1.3888890    0.00000       Uiso       1.00
       C12          C  0.4084707  0.3601984  1.3888890    0.00000       Uiso       1.00
       C13          C  0.3535013  0.5924933  1.3888890    0.00000       Uiso       1.00
        O3          O  0.4026951  0.5849605  1.3888890    0.00000       Uiso       1.00
       C14          C  0.3174714  0.6486156  1.3888890    0.00000       Uiso       1.00
        N3          N  0.4354917  0.4199201  1.3888890    0.00000       Uiso       1.00
        N4          N  0.3981814  0.4064499  1.3888890    0.00000       Uiso       1.00
        O4          O  0.3778091  0.4993500  1.3888890    0.00000       Uiso       1.00
       H17          H  0.0102585  0.3241235  1.1434139    0.00000       Uiso       1.00
       H18          H  0.0765487  0.3465619  1.6413389    0.00000       Uiso       1.00
       H19          H  0.9897428  0.6758779  1.1434139    0.00000       Uiso       1.00
       H20          H  0.9234527  0.6534395  1.6413389    0.00000       Uiso       1.00
       H21          H  0.9897428  0.6758779  1.6343639    0.00000       Uiso       1.00
       H22          H  0.9234527  0.6534395  1.1364388    0.00000       Uiso       1.00
       H23          H  0.0102585  0.3241235  1.6343639    0.00000       Uiso       1.00
       H24          H  0.0765487  0.3465619  1.1364388    0.00000       Uiso       1.00
       H25          H  0.9347165  0.7218235  1.3888890    0.00000       Uiso       1.00
       H26          H  0.0639869  0.5241622  1.3888890    0.00000       Uiso       1.00
       H27          H  0.8635844  0.5276690  1.3888890    0.00000       Uiso       1.00
       H28          H  0.7773277  0.5529869  1.3888890    0.00000       Uiso       1.00
       C15          C  0.0121531  0.4488353  1.3888890    0.00000       Uiso       1.00
       C16          C  0.9627122  0.4884278  1.3888890    0.00000       Uiso       1.00
       C17          C  0.8918123  0.5778901  1.3888890    0.00000       Uiso       1.00
       C18          C  0.9477365  0.5400237  1.3888890    0.00000       Uiso       1.00
       C19          C  0.7686691  0.5915307  1.3888890    0.00000       Uiso       1.00
       C20          C  0.9459946  0.6465001  1.3888890    0.00000       Uiso       1.00
        O5          O  0.9876556  0.5973064  1.3888890    0.00000       Uiso       1.00
       C21          C  0.9660870  0.6825300  1.3888890    0.00000       Uiso       1.00
        N5          N  0.8554117  0.5645097  1.3888890    0.00000       Uiso       1.00
        N6          N  0.8046312  0.6018201  1.3888890    0.00000       Uiso       1.00
        O6          O  0.8771591  0.6221923  1.3888890    0.00000       Uiso       1.00
       H29          H  0.0652850  0.2781779  1.3888890    0.00000       Uiso       1.00
       H30          H  0.9360145  0.4758393  1.3888890    0.00000       Uiso       1.00
       H31          H  0.1364170  0.4723324  1.3888890    0.00000       Uiso       1.00
       H32          H  0.2226737  0.4470145  1.3888890    0.00000       Uiso       1.00
       C22          C  0.9878483  0.5511661  1.3888890    0.00000       Uiso       1.00
       C23          C  0.0372892  0.5115737  1.3888890    0.00000       Uiso       1.00
       C24          C  0.1081891  0.4221113  1.3888890    0.00000       Uiso       1.00
       C25          C  0.0522649  0.4599777  1.3888890    0.00000       Uiso       1.00
       C26          C  0.2313323  0.4084707  1.3888890    0.00000       Uiso       1.00
       C27          C  0.0540068  0.3535013  1.3888890    0.00000       Uiso       1.00
        O7          O  0.0123459  0.4026951  1.3888890    0.00000       Uiso       1.00
       C28          C  0.0339144  0.3174714  1.3888890    0.00000       Uiso       1.00
        N7          N  0.1445897  0.4354917  1.3888890    0.00000       Uiso       1.00
        N8          N  0.1953702  0.3981813  1.3888890    0.00000       Uiso       1.00
        O8          O  0.1228423  0.3778091  1.3888890    0.00000       Uiso       1.00
       H33          H  0.6656194  0.0102585  1.1434139    0.00000       Uiso       1.00
       H34          H  0.5768908  0.0765487  1.6413389    0.00000       Uiso       1.00
       H35          H  0.3343821  0.9897428  1.1434139    0.00000       Uiso       1.00
       H36          H  0.4231106  0.9234527  1.6413389    0.00000       Uiso       1.00
       H37          H  0.3343821  0.9897428  1.6343639    0.00000       Uiso       1.00
       H38          H  0.4231106  0.9234527  1.1364388    0.00000       Uiso       1.00
       H39          H  0.6656194  0.0102585  1.6343639    0.00000       Uiso       1.00
       H40          H  0.5768908  0.0765487  1.1364388    0.00000       Uiso       1.00
       H41          H  0.3434629  0.9347165  1.3888890    0.00000       Uiso       1.00
       H42          H  0.4118524  0.0639869  1.3888890    0.00000       Uiso       1.00
       H43          H  0.6087494  0.8635845  1.3888890    0.00000       Uiso       1.00
       H44          H  0.6696883  0.7773277  1.3888890    0.00000       Uiso       1.00
       C29          C  0.5390130  0.0121531  1.3888890    0.00000       Uiso       1.00
       C30          C  0.5488628  0.9627123  1.3888890    0.00000       Uiso       1.00
       C31          C  0.5303004  0.8918123  1.3888890    0.00000       Uiso       1.00
       C32          C  0.5122426  0.9477364  1.3888890    0.00000       Uiso       1.00
       C33          C  0.6398030  0.7686691  1.3888890    0.00000       Uiso       1.00
       C34          C  0.4075082  0.9459946  1.3888890    0.00000       Uiso       1.00
        O9          O  0.4150409  0.9876556  1.3888890    0.00000       Uiso       1.00
       C35          C  0.3513859  0.9660870  1.3888890    0.00000       Uiso       1.00
        N9          N  0.5800813  0.8554116  1.3888890    0.00000       Uiso       1.00
       N10          N  0.5935515  0.8046313  1.3888890    0.00000       Uiso       1.00
       O10          O  0.5006514  0.8771591  1.3888890    0.00000       Uiso       1.00
       H45          H  0.6565385  0.0652849  1.3888890    0.00000       Uiso       1.00
       H46          H  0.5881491  0.9360145  1.3888890    0.00000       Uiso       1.00
       H47          H  0.3912520  0.1364170  1.3888890    0.00000       Uiso       1.00
       H48          H  0.3303131  0.2226738  1.3888890    0.00000       Uiso       1.00
       C36          C  0.4609884  0.9878483  1.3888890    0.00000       Uiso       1.00
       C37          C  0.4511386  0.0372892  1.3888890    0.00000       Uiso       1.00
       C38          C  0.4697009  0.1081892  1.3888890    0.00000       Uiso       1.00
       C39          C  0.4877588  0.0522649  1.3888890    0.00000       Uiso       1.00
       C40          C  0.3601984  0.2313323  1.3888890    0.00000       Uiso       1.00
       C41          C  0.5924933  0.0540068  1.3888890    0.00000       Uiso       1.00
       O11          O  0.5849605  0.0123459  1.3888890    0.00000       Uiso       1.00
       C42          C  0.6486155  0.0339144  1.3888890    0.00000       Uiso       1.00
       N11          N  0.4199201  0.1445897  1.3888890    0.00000       Uiso       1.00
       N12          N  0.4064499  0.1953702  1.3888890    0.00000       Uiso       1.00
       O12          O  0.4993501  0.1228423  1.3888890    0.00000       Uiso       1.00
       C43          C  0.6820521  0.6140049  1.3888890    0.00000       Uiso       1.00
       C44          C  0.6284971  0.6509461  1.3888890    0.00000       Uiso       1.00
       O13          O  0.6955644  0.5703794  1.3888890    0.00000       Uiso       1.00
       C45          C  0.6140049  0.7039459  1.3888890    0.00000       Uiso       1.00
       C46          C  0.6509462  0.7205596  1.3888890    0.00000       Uiso       1.00
       O14          O  0.5703794  0.7340590  1.3888890    0.00000       Uiso       1.00
       C47          C  0.7039459  0.6820521  1.3888890    0.00000       Uiso       1.00
       C48          C  0.7205596  0.6284971  1.3888890    0.00000       Uiso       1.00
       O15          O  0.7340590  0.6955644  1.3888890    0.00000       Uiso       1.00
       C49          C  0.3179493  0.3859965  1.3888890    0.00000       Uiso       1.00
       C50          C  0.3715044  0.3490552  1.3888890    0.00000       Uiso       1.00
       O16          O  0.3044370  0.4296221  1.3888890    0.00000       Uiso       1.00
       C51          C  0.3859965  0.2960556  1.3888890    0.00000       Uiso       1.00
       C52          C  0.3490552  0.2794418  1.3888890    0.00000       Uiso       1.00
       O17          O  0.4296220  0.2659424  1.3888890    0.00000       Uiso       1.00
       C53          C  0.2960556  0.3179493  1.3888890    0.00000       Uiso       1.00
       C54          C  0.2794418  0.3715043  1.3888890    0.00000       Uiso       1.00
       O18          O  0.2659424  0.3044370  1.3888890    0.00000       Uiso       1.00
