data_crystal
 
_cell_length_a    37.52420
_cell_length_b    37.52420
_cell_length_c    6.24580
_cell_angle_alpha 90.00000
_cell_angle_beta  90.00000
_cell_angle_gamma 120.00000
 
_symmetry_space_group_name_Hall 'P 1'
_symmetry_space_group_name_H-M  'P 1'
 
loop_
_symmetry_equiv_pos_as_xyz
 'x,y,z' 
 
loop_
_atom_site_label
_atom_site_type_symbol
_atom_site_fract_x
_atom_site_fract_y
_atom_site_fract_z
_atom_site_charge
C          C       0.48103   0.48099   0.50760   0.0000000000
C          C       0.51901   0.00004   0.50760   0.0000000000
C          C       0.99996   0.51897   0.50760   0.0000000000
C          C       0.51897   0.51901   0.50760   0.0000000000
C          C       0.48099   0.99996   0.50760   0.0000000000
C          C       0.00004   0.48103   0.50760   0.0000000000
C          C       0.44280   0.47974   0.51030   0.0000000000
C          C       0.52026   0.96307   0.51030   0.0000000000
C          C       0.03694   0.55720   0.51030   0.0000000000
C          C       0.55720   0.52026   0.51030   0.0000000000
C          C       0.47974   0.03694   0.51030   0.0000000000
C          C       0.96307   0.44280   0.51030   0.0000000000
C          C       0.41794   0.46787   0.32483   0.0000000000
C          C       0.53213   0.95008   0.32483   0.0000000000
C          C       0.04992   0.58206   0.32483   0.0000000000
C          C       0.58206   0.53213   0.32483   0.0000000000
C          C       0.46787   0.04992   0.32483   0.0000000000
C          C       0.95008   0.41794   0.32483   0.0000000000
C          C       0.38038   0.46772   0.32355   0.0000000000
C          C       0.53228   0.91266   0.32355   0.0000000000
C          C       0.08734   0.61962   0.32355   0.0000000000
C          C       0.61962   0.53228   0.32355   0.0000000000
C          C       0.46772   0.08734   0.32355   0.0000000000
C          C       0.91266   0.38038   0.32355   0.0000000000
C          C       0.36648   0.47835   0.50996   0.0000000000
C          C       0.52165   0.88813   0.50996   0.0000000000
C          C       0.11187   0.63352   0.50996   0.0000000000
C          C       0.63352   0.52165   0.50996   0.0000000000
C          C       0.47835   0.11187   0.50996   0.0000000000
C          C       0.88813   0.36648   0.50996   0.0000000000
C          C       0.39093   0.48952   0.69690   0.0000000000
C          C       0.51048   0.90141   0.69690   0.0000000000
C          C       0.09859   0.60907   0.69690   0.0000000000
C          C       0.60907   0.51048   0.69690   0.0000000000
C          C       0.48952   0.09859   0.69690   0.0000000000
C          C       0.90141   0.39093   0.69690   0.0000000000
C          C       0.42902   0.49068   0.69608   0.0000000000
C          C       0.50932   0.93834   0.69608   0.0000000000
C          C       0.06166   0.57098   0.69608   0.0000000000
C          C       0.57098   0.50932   0.69608   0.0000000000
C          C       0.49068   0.06166   0.69608   0.0000000000
C          C       0.93834   0.42902   0.69608   0.0000000000
C          C       0.47948   0.44258   0.50374   0.0000000000
C          C       0.55742   0.03690   0.50374   0.0000000000
C          C       0.96310   0.52052   0.50374   0.0000000000
C          C       0.52052   0.55742   0.50374   0.0000000000
C          C       0.44258   0.96310   0.50374   0.0000000000
C          C       0.03690   0.47948   0.50374   0.0000000000
C          C       0.46299   0.41522   0.67894   0.0000000000
C          C       0.58478   0.04777   0.67894   0.0000000000
C          C       0.95223   0.53701   0.67894   0.0000000000
C          C       0.53701   0.58478   0.67894   0.0000000000
C          C       0.41522   0.95223   0.67894   0.0000000000
C          C       0.04777   0.46299   0.67894   0.0000000000
C          C       0.46214   0.37732   0.67764   0.0000000000
C          C       0.62268   0.08482   0.67764   0.0000000000
C          C       0.91518   0.53786   0.67764   0.0000000000
C          C       0.53786   0.62268   0.67764   0.0000000000
C          C       0.37732   0.91518   0.67764   0.0000000000
C          C       0.08482   0.46214   0.67764   0.0000000000
C          C       0.47759   0.36583   0.50038   0.0000000000
C          C       0.63417   0.11176   0.50038   0.0000000000
C          C       0.88824   0.52241   0.50038   0.0000000000
C          C       0.52241   0.63417   0.50038   0.0000000000
C          C       0.36583   0.88824   0.50038   0.0000000000
C          C       0.11176   0.47759   0.50038   0.0000000000
C          C       0.49361   0.39290   0.32379   0.0000000000
C          C       0.60710   0.10070   0.32379   0.0000000000
C          C       0.89930   0.50640   0.32379   0.0000000000
C          C       0.50640   0.60710   0.32379   0.0000000000
C          C       0.39290   0.89930   0.32379   0.0000000000
C          C       0.10070   0.49361   0.32379   0.0000000000
C          C       0.49451   0.43083   0.32556   0.0000000000
C          C       0.56917   0.06368   0.32556   0.0000000000
C          C       0.93632   0.50549   0.32556   0.0000000000
C          C       0.50549   0.56917   0.32556   0.0000000000
C          C       0.43083   0.93632   0.32556   0.0000000000
C          C       0.06368   0.49451   0.32556   0.0000000000
B          B       0.32661   0.47791   0.50867   0.0000000000
B          B       0.52209   0.84870   0.50867   0.0000000000
B          B       0.15130   0.67340   0.50867   0.0000000000
B          B       0.67340   0.52209   0.50867   0.0000000000
B          B       0.47791   0.15130   0.50867   0.0000000000
B          B       0.84870   0.32661   0.50867   0.0000000000
O          O       0.29843   0.46574   0.68644   0.0000000000
O          O       0.53426   0.83269   0.68644   0.0000000000
O          O       0.16731   0.70157   0.68644   0.0000000000
O          O       0.70157   0.53426   0.68644   0.0000000000
O          O       0.46574   0.16731   0.68644   0.0000000000
O          O       0.83269   0.29843   0.68644   0.0000000000
O          O       0.31076   0.48965   0.32849   0.0000000000
O          O       0.51035   0.82111   0.32849   0.0000000000
O          O       0.17889   0.68924   0.32849   0.0000000000
O          O       0.68924   0.51035   0.32849   0.0000000000
O          O       0.48965   0.17889   0.32849   0.0000000000
O          O       0.82111   0.31076   0.32849   0.0000000000
C          C       0.26704   0.46989   0.61109   0.0000000000
C          C       0.53011   0.79715   0.61109   0.0000000000
C          C       0.20285   0.73296   0.61109   0.0000000000
C          C       0.73296   0.53011   0.61109   0.0000000000
C          C       0.46989   0.20285   0.61109   0.0000000000
C          C       0.79715   0.26704   0.61109   0.0000000000
B          B       0.47720   0.32591   0.50055   0.0000000000
B          B       0.67409   0.15129   0.50055   0.0000000000
B          B       0.84871   0.52280   0.50055   0.0000000000
B          B       0.52280   0.67409   0.50055   0.0000000000
B          B       0.32591   0.84871   0.50055   0.0000000000
B          B       0.15129   0.47720   0.50055   0.0000000000
O          O       0.49069   0.31046   0.32574   0.0000000000
O          O       0.68954   0.18024   0.32574   0.0000000000
O          O       0.81976   0.50931   0.32574   0.0000000000
O          O       0.50931   0.68954   0.32574   0.0000000000
O          O       0.31046   0.81976   0.32574   0.0000000000
O          O       0.18024   0.49069   0.32574   0.0000000000
O          O       0.46351   0.29722   0.67648   0.0000000000
O          O       0.70278   0.16629   0.67648   0.0000000000
O          O       0.83371   0.53649   0.67648   0.0000000000
O          O       0.53649   0.70278   0.67648   0.0000000000
O          O       0.29722   0.83371   0.67648   0.0000000000
O          O       0.16629   0.46351   0.67648   0.0000000000
C          C       0.48514   0.27420   0.39797   0.0000000000
C          C       0.72580   0.21094   0.39797   0.0000000000
C          C       0.78906   0.51486   0.39797   0.0000000000
C          C       0.51486   0.72580   0.39797   0.0000000000
C          C       0.27420   0.78906   0.39797   0.0000000000
C          C       0.21094   0.48514   0.39797   0.0000000000
C          C       0.49341   0.24623   0.29017   0.0000000000
C          C       0.75377   0.24718   0.29017   0.0000000000
C          C       0.75282   0.50659   0.29017   0.0000000000
C          C       0.50659   0.75377   0.29017   0.0000000000
C          C       0.24623   0.75282   0.29017   0.0000000000
C          C       0.24718   0.49341   0.29017   0.0000000000
C          C       0.46911   0.26640   0.60675   0.0000000000
C          C       0.73360   0.20271   0.60675   0.0000000000
C          C       0.79729   0.53089   0.60675   0.0000000000
C          C       0.53089   0.73360   0.60675   0.0000000000
C          C       0.26640   0.79729   0.60675   0.0000000000
C          C       0.20271   0.46911   0.60675   0.0000000000
C          C       0.48494   0.21015   0.40024   0.0000000000
C          C       0.78985   0.27479   0.40024   0.0000000000
C          C       0.72521   0.51506   0.40024   0.0000000000
C          C       0.51506   0.78985   0.40024   0.0000000000
C          C       0.21015   0.72521   0.40024   0.0000000000
C          C       0.27479   0.48494   0.40024   0.0000000000
C          C       0.23050   0.46100   0.71760   0.0000000000
C          C       0.53900   0.76950   0.71760   0.0000000000
C          C       0.23050   0.76950   0.71760   0.0000000000
C          C       0.76950   0.53900   0.71760   0.0000000000
C          C       0.46100   0.23050   0.71760   0.0000000000
C          C       0.76950   0.23050   0.71760   0.0000000000
H          H       0.42715   0.45943   0.18914   0.0000000000
H          H       0.36300   0.45932   0.18668   0.0000000000
H          H       0.38141   0.49748   0.83343   0.0000000000
H          H       0.44669   0.49962   0.83158   0.0000000000
H          H       0.45162   0.42281   0.80933   0.0000000000
H          H       0.45015   0.35813   0.80736   0.0000000000
H          H       0.50490   0.38527   0.19288   0.0000000000
H          H       0.50630   0.44991   0.19588   0.0000000000
H          H       0.50525   0.25196   0.13925   0.0000000000
H          H       0.22435   0.44911   0.86842   0.0000000000
H          H       0.54057   0.96772   0.18914   0.0000000000
H          H       0.54068   0.90368   0.18668   0.0000000000
H          H       0.50252   0.88393   0.83343   0.0000000000
H          H       0.50038   0.94707   0.83158   0.0000000000
H          H       0.57719   0.02881   0.80933   0.0000000000
H          H       0.64187   0.09201   0.80736   0.0000000000
H          H       0.61473   0.11964   0.19288   0.0000000000
H          H       0.55009   0.05639   0.19588   0.0000000000
H          H       0.74804   0.25328   0.13925   0.0000000000
H          H       0.55089   0.77524   0.86842   0.0000000000
H          H       0.03228   0.57285   0.18914   0.0000000000
H          H       0.09633   0.63700   0.18668   0.0000000000
H          H       0.11607   0.61859   0.83343   0.0000000000
H          H       0.05293   0.55331   0.83158   0.0000000000
H          H       0.97119   0.54838   0.80933   0.0000000000
H          H       0.90799   0.54985   0.80736   0.0000000000
H          H       0.88036   0.49510   0.19288   0.0000000000
H          H       0.94361   0.49370   0.19588   0.0000000000
H          H       0.74672   0.49475   0.13925   0.0000000000
H          H       0.22476   0.77565   0.86842   0.0000000000
H          H       0.57285   0.54057   0.18914   0.0000000000
H          H       0.63700   0.54068   0.18668   0.0000000000
H          H       0.61859   0.50252   0.83343   0.0000000000
H          H       0.55331   0.50038   0.83158   0.0000000000
H          H       0.54838   0.57719   0.80933   0.0000000000
H          H       0.54985   0.64187   0.80736   0.0000000000
H          H       0.49510   0.61473   0.19288   0.0000000000
H          H       0.49370   0.55009   0.19588   0.0000000000
H          H       0.49475   0.74804   0.13925   0.0000000000
H          H       0.77565   0.55089   0.86842   0.0000000000
H          H       0.45943   0.03228   0.18914   0.0000000000
H          H       0.45932   0.09633   0.18668   0.0000000000
H          H       0.49748   0.11607   0.83343   0.0000000000
H          H       0.49962   0.05293   0.83158   0.0000000000
H          H       0.42281   0.97119   0.80933   0.0000000000
H          H       0.35813   0.90799   0.80736   0.0000000000
H          H       0.38527   0.88036   0.19288   0.0000000000
H          H       0.44991   0.94361   0.19588   0.0000000000
H          H       0.25196   0.74672   0.13925   0.0000000000
H          H       0.44911   0.22476   0.86842   0.0000000000
H          H       0.96772   0.42715   0.18914   0.0000000000
H          H       0.90368   0.36300   0.18668   0.0000000000
H          H       0.88393   0.38141   0.83343   0.0000000000
H          H       0.94707   0.44669   0.83158   0.0000000000
H          H       0.02881   0.45162   0.80933   0.0000000000
H          H       0.09201   0.45015   0.80736   0.0000000000
H          H       0.11964   0.50490   0.19288   0.0000000000
H          H       0.05639   0.50630   0.19588   0.0000000000
H          H       0.25328   0.50525   0.13925   0.0000000000
H          H       0.77524   0.22435   0.86842   0.0000000000
