data_crystal

_cell_length_a    29.21400
_cell_length_b    29.21400
_cell_length_c    7.20000
_cell_angle_alpha 90.00000
_cell_angle_beta  90.00000
_cell_angle_gamma 120.00000

_symmetry_space_group_name_Hall 'P 1'
_symmetry_space_group_name_H-M  'P 1'

loop_
_symmetry_equiv_pos_as_xyz
 'x,y,z'

loop_
_atom_site_label
_atom_site_type_symbol
_atom_site_fract_x
_atom_site_fract_y
_atom_site_fract_z
_atom_site_charge
N          N       0.43726  -0.18983  -0.19445   0.0000000000
N          N       0.61097   0.18867  -0.19445   0.0000000000
N          N       0.37291  -0.43726  -0.19445   0.0000000000
N          N       0.57769   0.38903  -0.19445   0.0000000000
N          N       0.18983  -0.37290  -0.19445   0.0000000000
N          N       0.81133   0.42231  -0.19445   0.0000000000
C          C       0.38445  -0.22214  -0.19445   0.0000000000
C          C       0.46402  -0.13679  -0.19445   0.0000000000
C          C       0.43819  -0.10822  -0.19445   0.0000000000
C          C       0.46831  -0.05468  -0.19445   0.0000000000
C          C       0.52496  -0.02685  -0.19445   0.0000000000
C          C       0.55547  -0.05357  -0.19445   0.0000000000
C          C       0.51948  -0.10958  -0.19445   0.0000000000
C          C       0.65818   0.23203  -0.19445   0.0000000000
C          C       0.59537   0.13772  -0.19445   0.0000000000
C          C       0.62614   0.11343  -0.19445   0.0000000000
C          C       0.60577   0.05757  -0.19445   0.0000000000
C          C       0.54954   0.02835  -0.19445   0.0000000000
C          C       0.51905   0.05469  -0.19445   0.0000000000
C          C       0.54118   0.10838  -0.19445   0.0000000000
C          C       0.39341  -0.38445  -0.19445   0.0000000000
C          C       0.39919  -0.46402  -0.19445   0.0000000000
C          C       0.45359  -0.43819  -0.19445   0.0000000000
C          C       0.47701  -0.46831  -0.19445   0.0000000000
C          C       0.44819  -0.52495  -0.19445   0.0000000000
C          C       0.39096  -0.55547  -0.19445   0.0000000000
C          C       0.37094  -0.51948  -0.19445   0.0000000000
C          C       0.57385   0.34183  -0.19445   0.0000000000
C          C       0.54235   0.40463  -0.19445   0.0000000000
C          C       0.48729   0.37386  -0.19445   0.0000000000
C          C       0.45180   0.39424  -0.19445   0.0000000000
C          C       0.47881   0.45046  -0.19445   0.0000000000
C          C       0.53564   0.48095  -0.19445   0.0000000000
C          C       0.56721   0.45883  -0.19445   0.0000000000
C          C       0.22214  -0.39341  -0.19445   0.0000000000
C          C       0.13679  -0.39919  -0.19445   0.0000000000
C          C       0.10822  -0.45359  -0.19445   0.0000000000
C          C       0.05468  -0.47701  -0.19445   0.0000000000
C          C       0.02685  -0.44819  -0.19445   0.0000000000
C          C       0.05357  -0.39096  -0.19445   0.0000000000
C          C       0.10958  -0.37094  -0.19445   0.0000000000
C          C       0.76797   0.42615  -0.19445   0.0000000000
C          C       0.86228   0.45765  -0.19445   0.0000000000
C          C       0.88657   0.51271  -0.19445   0.0000000000
C          C       0.94243   0.54820  -0.19445   0.0000000000
C          C       0.97165   0.52119  -0.19445   0.0000000000
C          C       0.94532   0.46436  -0.19445   0.0000000000
C          C       0.89162   0.43279  -0.19445   0.0000000000
H          H       0.36013  -0.20652  -0.19445   0.0000000000
H          H       0.43334  -0.36013  -0.19445   0.0000000000
H          H       0.20653  -0.43334  -0.19445   0.0000000000
H          H       0.39817  -0.12453  -0.19445   0.0000000000
H          H       0.47730  -0.39817  -0.19445   0.0000000000
H          H       0.12453  -0.47730  -0.19445   0.0000000000
H          H       0.45791  -0.20751  -0.19445   0.0000000000
H          H       0.33458  -0.45790  -0.19445   0.0000000000
H          H       0.20751  -0.33458  -0.19445   0.0000000000
H          H       0.52965  -0.13603  -0.19445   0.0000000000
H          H       0.33432  -0.52965  -0.19445   0.0000000000
H          H       0.13603  -0.33431  -0.19445   0.0000000000
H          H       0.44432  -0.03922  -0.19445   0.0000000000
H          H       0.51646  -0.44432  -0.19445   0.0000000000
H          H       0.03922  -0.51645  -0.19445   0.0000000000
C          C       0.61428  -0.02476  -0.19445   0.0000000000
C          C       0.36095  -0.61428  -0.19445   0.0000000000
C          C       0.02477  -0.36095  -0.19445   0.0000000000
C          C       0.30058  -0.64772  -0.19445   0.0000000000
C          C       0.26621  -0.70534  -0.19445   0.0000000000
C          C       0.21038  -0.73644  -0.19445   0.0000000000
C          C       0.17987  -0.71237  -0.19445   0.0000000000
C          C       0.20696  -0.65764  -0.19445   0.0000000000
C          C       0.26279  -0.62923  -0.19445   0.0000000000
H          H       0.13948  -0.73385  -0.19445   0.0000000000
H          H       0.18595  -0.63814  -0.19445   0.0000000000
H          H       0.27080  -0.59285  -0.19445   0.0000000000
H          H       0.27734   0.26773  -0.19445   0.0000000000
H          H       0.19155  -0.77700  -0.19445   0.0000000000
C          C       0.05170  -0.30058  -0.19445   0.0000000000
C          C       0.02845  -0.26621  -0.19445   0.0000000000
C          C       0.05318  -0.21038  -0.19445   0.0000000000
C          C       0.10775  -0.17987  -0.19445   0.0000000000
C          C       0.13540  -0.20696  -0.19445   0.0000000000
C          C       0.10798  -0.26279  -0.19445   0.0000000000
H          H       0.12667  -0.13948  -0.19445   0.0000000000
H          H       0.17590  -0.18595  -0.19445   0.0000000000
H          H       0.13635  -0.27080  -0.19445   0.0000000000
H          H       0.99040   0.72267  -0.19445   0.0000000000
H          H       0.03145  -0.19155  -0.19445   0.0000000000
C          C       0.64772  -0.05170  -0.19445   0.0000000000
C          C       0.70534  -0.02845  -0.19445   0.0000000000
C          C       0.73645  -0.05317  -0.19445   0.0000000000
C          C       0.71237  -0.10775  -0.19445   0.0000000000
C          C       0.65764  -0.13540  -0.19445   0.0000000000
C          C       0.62923  -0.10798  -0.19445   0.0000000000
H          H       0.73385  -0.12667  -0.19445   0.0000000000
H          H       0.63815  -0.17590  -0.19445   0.0000000000
H          H       0.59285  -0.13635  -0.19445   0.0000000000
H          H       0.73227   0.00960  -0.19445   0.0000000000
H          H       0.77700  -0.03145  -0.19445   0.0000000000
H          H       0.69151   0.22868  -0.19445   0.0000000000
H          H       0.66376   0.13983  -0.19445   0.0000000000
H          H       0.58227   0.19563  -0.19445   0.0000000000
H          H       0.51754   0.12526  -0.19445   0.0000000000
N          N       0.63591   0.03217  -0.19445   0.0000000000
H          H       0.47941   0.03802  -0.19445   0.0000000000
H          H       0.73502   0.14786  -0.08060   0.0000000000
H          H       0.70582   0.05449  -0.07784   0.0000000000
H          H       0.73502   0.14786  -0.30829   0.0000000000
H          H       0.70582   0.05449  -0.31105   0.0000000000
C          C       0.73715   0.12618  -0.19445   0.0000000000
C          C       0.69374   0.06654  -0.19445   0.0000000000
H          H       0.77663   0.13060  -0.19445   0.0000000000
I          I       0.85306   0.23498  -0.24945   0.0000000000
H          H       0.53718   0.30849  -0.19445   0.0000000000
H          H       0.47607   0.33624  -0.19445   0.0000000000
H          H       0.61337   0.41774  -0.19445   0.0000000000
H          H       0.60772   0.48246  -0.19445   0.0000000000
N          N       0.39626   0.36410  -0.19445   0.0000000000
H          H       0.55861   0.52059  -0.19445   0.0000000000
H          H       0.41284   0.26498  -0.08060   0.0000000000
H          H       0.34866   0.29418  -0.07784   0.0000000000
H          H       0.41284   0.26498  -0.30829   0.0000000000
H          H       0.34866   0.29418  -0.31105   0.0000000000
C          C       0.38904   0.26285  -0.19445   0.0000000000
C          C       0.37280   0.30626  -0.19445   0.0000000000
H          H       0.35398   0.22338  -0.19445   0.0000000000
I          I       0.36304   0.13382  -0.26792   0.0000000000
H          H       0.77132   0.46283  -0.19445   0.0000000000
H          H       0.86017   0.52393  -0.19445   0.0000000000
H          H       0.80437   0.38663  -0.19445   0.0000000000
H          H       0.87475   0.39228  -0.19445   0.0000000000
N          N       0.96784   0.60374  -0.19445   0.0000000000
H          H       0.96198   0.44139  -0.19445   0.0000000000
H          H       0.85214   0.58717  -0.08060   0.0000000000
H          H       0.94552   0.65134  -0.07784   0.0000000000
H          H       0.85214   0.58717  -0.30829   0.0000000000
H          H       0.94552   0.65134  -0.31105   0.0000000000
C          C       0.87382   0.61097  -0.19445   0.0000000000
C          C       0.93346   0.62720  -0.19445   0.0000000000
H          H       0.86940   0.64602  -0.19445   0.0000000000
I          I       0.80221   0.68924  -0.29695   0.0000000000
C          C       0.61595   0.28863  -0.19445   0.0000000000
C          C       0.66091   0.28178  -0.19445   0.0000000000
C          C       0.38880  -0.30438  -0.19445   0.0000000000
C          C       0.36008  -0.27737  -0.19445   0.0000000000
C          C       0.67268   0.38405  -0.19445   0.0000000000
C          C       0.62087   0.33910  -0.19445   0.0000000000
C          C       0.30681  -0.38880  -0.19445   0.0000000000
C          C       0.36255  -0.36008  -0.19445   0.0000000000
C          C       0.71137   0.32732  -0.19445   0.0000000000
C          C       0.71822   0.37913  -0.19445   0.0000000000
C          C       0.30439  -0.30681  -0.19445   0.0000000000
C          C       0.27737  -0.36255  -0.19445   0.0000000000
O          O       0.56933   0.25034  -0.19445   0.0000000000
O          O       0.43850  -0.27944  -0.19445   0.0000000000
O          O       0.68101   0.43067  -0.19445   0.0000000000
O          O       0.28205  -0.43850  -0.19445   0.0000000000
O          O       0.74966   0.31899  -0.19445   0.0000000000
O          O       0.27945  -0.28205  -0.19445   0.0000000000
N          N       0.43726  -0.18983   0.30556   0.0000000000
N          N       0.61097   0.18867   0.30556   0.0000000000
N          N       0.37291  -0.43726   0.30556   0.0000000000
N          N       0.57769   0.38903   0.30556   0.0000000000
N          N       0.18983  -0.37290   0.30556   0.0000000000
N          N       0.81133   0.42231   0.30556   0.0000000000
C          C       0.38445  -0.22214   0.30556   0.0000000000
C          C       0.46402  -0.13679   0.30556   0.0000000000
C          C       0.43819  -0.10822   0.30556   0.0000000000
C          C       0.46831  -0.05468   0.30556   0.0000000000
C          C       0.52496  -0.02685   0.30556   0.0000000000
C          C       0.55547  -0.05357   0.30556   0.0000000000
C          C       0.51948  -0.10958   0.30556   0.0000000000
C          C       0.65818   0.23203   0.30556   0.0000000000
C          C       0.59537   0.13772   0.30556   0.0000000000
C          C       0.62614   0.11343   0.30556   0.0000000000
C          C       0.60577   0.05757   0.30556   0.0000000000
C          C       0.54954   0.02835   0.30556   0.0000000000
C          C       0.51905   0.05469   0.30556   0.0000000000
C          C       0.54118   0.10838   0.30556   0.0000000000
C          C       0.39341  -0.38445   0.30556   0.0000000000
C          C       0.39919  -0.46402   0.30556   0.0000000000
C          C       0.45359  -0.43819   0.30556   0.0000000000
C          C       0.47701  -0.46831   0.30556   0.0000000000
C          C       0.44819  -0.52495   0.30556   0.0000000000
C          C       0.39096  -0.55547   0.30556   0.0000000000
C          C       0.37094  -0.51948   0.30556   0.0000000000
C          C       0.57385   0.34183   0.30556   0.0000000000
C          C       0.54235   0.40463   0.30556   0.0000000000
C          C       0.48729   0.37386   0.30556   0.0000000000
C          C       0.45180   0.39424   0.30556   0.0000000000
C          C       0.47881   0.45046   0.30556   0.0000000000
C          C       0.53564   0.48095   0.30556   0.0000000000
C          C       0.56721   0.45883   0.30556   0.0000000000
C          C       0.22214  -0.39341   0.30556   0.0000000000
C          C       0.13679  -0.39919   0.30556   0.0000000000
C          C       0.10822  -0.45359   0.30556   0.0000000000
C          C       0.05468  -0.47701   0.30556   0.0000000000
C          C       0.02685  -0.44819   0.30556   0.0000000000
C          C       0.05357  -0.39096   0.30556   0.0000000000
C          C       0.10958  -0.37094   0.30556   0.0000000000
C          C       0.76797   0.42615   0.30556   0.0000000000
C          C       0.86228   0.45765   0.30556   0.0000000000
C          C       0.88657   0.51271   0.30556   0.0000000000
C          C       0.94243   0.54820   0.30556   0.0000000000
C          C       0.97165   0.52119   0.30556   0.0000000000
C          C       0.94532   0.46436   0.30556   0.0000000000
C          C       0.89162   0.43279   0.30556   0.0000000000
H          H       0.36013  -0.20652   0.30556   0.0000000000
H          H       0.43334  -0.36013   0.30556   0.0000000000
H          H       0.20653  -0.43334   0.30556   0.0000000000
H          H       0.39817  -0.12453   0.30556   0.0000000000
H          H       0.47730  -0.39817   0.30556   0.0000000000
H          H       0.12453  -0.47730   0.30556   0.0000000000
H          H       0.45791  -0.20751   0.30556   0.0000000000
H          H       0.33458  -0.45790   0.30556   0.0000000000
H          H       0.20751  -0.33458   0.30556   0.0000000000
H          H       0.52965  -0.13603   0.30556   0.0000000000
H          H       0.33432  -0.52965   0.30556   0.0000000000
H          H       0.13603  -0.33431   0.30556   0.0000000000
H          H       0.44432  -0.03922   0.30556   0.0000000000
H          H       0.51646  -0.44432   0.30556   0.0000000000
H          H       0.03922  -0.51645   0.30556   0.0000000000
C          C       0.61428  -0.02476   0.30556   0.0000000000
C          C       0.36095  -0.61428   0.30556   0.0000000000
C          C       0.02477  -0.36095   0.30556   0.0000000000
C          C       0.30058  -0.64772   0.30556   0.0000000000
C          C       0.26621  -0.70534   0.30556   0.0000000000
C          C       0.21038  -0.73644   0.30556   0.0000000000
C          C       0.17987  -0.71237   0.30556   0.0000000000
C          C       0.20696  -0.65764   0.30556   0.0000000000
C          C       0.26279  -0.62923   0.30556   0.0000000000
H          H       0.13948  -0.73385   0.30556   0.0000000000
H          H       0.18595  -0.63814   0.30556   0.0000000000
H          H       0.27080  -0.59285   0.30556   0.0000000000
H          H       0.27734   0.26773   0.30556   0.0000000000
H          H       0.19155  -0.77700   0.30556   0.0000000000
C          C       0.05170  -0.30058   0.30556   0.0000000000
C          C       0.02845  -0.26621   0.30556   0.0000000000
C          C       0.05318  -0.21038   0.30556   0.0000000000
C          C       0.10775  -0.17987   0.30556   0.0000000000
C          C       0.13540  -0.20696   0.30556   0.0000000000
C          C       0.10798  -0.26279   0.30556   0.0000000000
H          H       0.12667  -0.13948   0.30556   0.0000000000
H          H       0.17590  -0.18595   0.30556   0.0000000000
H          H       0.13635  -0.27080   0.30556   0.0000000000
H          H       0.99040   0.72267   0.30556   0.0000000000
H          H       0.03145  -0.19155   0.30556   0.0000000000
C          C       0.64772  -0.05170   0.30556   0.0000000000
C          C       0.70534  -0.02845   0.30556   0.0000000000
C          C       0.73645  -0.05317   0.30556   0.0000000000
C          C       0.71237  -0.10775   0.30556   0.0000000000
C          C       0.65764  -0.13540   0.30556   0.0000000000
C          C       0.62923  -0.10798   0.30556   0.0000000000
H          H       0.73385  -0.12667   0.30556   0.0000000000
H          H       0.63815  -0.17590   0.30556   0.0000000000
H          H       0.59285  -0.13635   0.30556   0.0000000000
H          H       0.73227   0.00960   0.30556   0.0000000000
H          H       0.77700  -0.03145   0.30556   0.0000000000
H          H       0.69151   0.22868   0.30556   0.0000000000
H          H       0.66376   0.13983   0.30556   0.0000000000
H          H       0.58227   0.19563   0.30556   0.0000000000
H          H       0.51754   0.12526   0.30556   0.0000000000
N          N       0.63591   0.03217   0.30556   0.0000000000
H          H       0.47941   0.03802   0.30556   0.0000000000
H          H       0.73502   0.14786   0.41940   0.0000000000
H          H       0.70582   0.05449   0.42216   0.0000000000
H          H       0.73502   0.14786   0.19172   0.0000000000
H          H       0.70582   0.05449   0.18895   0.0000000000
C          C       0.73715   0.12618   0.30556   0.0000000000
C          C       0.69374   0.06654   0.30556   0.0000000000
H          H       0.77663   0.13060   0.30556   0.0000000000
I          I       0.85306   0.23498   0.25055   0.0000000000
H          H       0.53718   0.30849   0.30556   0.0000000000
H          H       0.47607   0.33624   0.30556   0.0000000000
H          H       0.61337   0.41774   0.30556   0.0000000000
H          H       0.60772   0.48246   0.30556   0.0000000000
N          N       0.39626   0.36410   0.30556   0.0000000000
H          H       0.55861   0.52059   0.30556   0.0000000000
H          H       0.41284   0.26498   0.41940   0.0000000000
H          H       0.34866   0.29418   0.42216   0.0000000000
H          H       0.41284   0.26498   0.19172   0.0000000000
H          H       0.34866   0.29418   0.18895   0.0000000000
C          C       0.38904   0.26285   0.30556   0.0000000000
C          C       0.37280   0.30626   0.30556   0.0000000000
H          H       0.35398   0.22338   0.30556   0.0000000000
I          I       0.36304   0.13382   0.23208   0.0000000000
H          H       0.77132   0.46283   0.30556   0.0000000000
H          H       0.86017   0.52393   0.30556   0.0000000000
H          H       0.80437   0.38663   0.30556   0.0000000000
H          H       0.87475   0.39228   0.30556   0.0000000000
N          N       0.96784   0.60374   0.30556   0.0000000000
H          H       0.96198   0.44139   0.30556   0.0000000000
H          H       0.85214   0.58717   0.41940   0.0000000000
H          H       0.94552   0.65134   0.42216   0.0000000000
H          H       0.85214   0.58717   0.19172   0.0000000000
H          H       0.94552   0.65134   0.18895   0.0000000000
C          C       0.87382   0.61097   0.30556   0.0000000000
C          C       0.93346   0.62720   0.30556   0.0000000000
H          H       0.86940   0.64602   0.30556   0.0000000000
I          I       0.80221   0.68924   0.20305   0.0000000000
C          C       0.61595   0.28863   0.30556   0.0000000000
C          C       0.66091   0.28178   0.30556   0.0000000000
C          C       0.38880  -0.30438   0.30556   0.0000000000
C          C       0.36008  -0.27737   0.30556   0.0000000000
C          C       0.67268   0.38405   0.30556   0.0000000000
C          C       0.62087   0.33910   0.30556   0.0000000000
C          C       0.30681  -0.38880   0.30556   0.0000000000
C          C       0.36255  -0.36008   0.30556   0.0000000000
C          C       0.71137   0.32732   0.30556   0.0000000000
C          C       0.71822   0.37913   0.30556   0.0000000000
C          C       0.30439  -0.30681   0.30556   0.0000000000
C          C       0.27737  -0.36255   0.30556   0.0000000000
O          O       0.56933   0.25034   0.30556   0.0000000000
O          O       0.43850  -0.27944   0.30556   0.0000000000
O          O       0.68101   0.43067   0.30556   0.0000000000
O          O       0.28205  -0.43850   0.30556   0.0000000000
O          O       0.74966   0.31899   0.30556   0.0000000000
O          O       0.27945  -0.28205   0.30556   0.0000000000
