data_crystal
 
_cell_length_a    25.74800
_cell_length_b    28.86790
_cell_length_c    13.60000
_cell_angle_alpha 90.00000
_cell_angle_beta  90.00000
_cell_angle_gamma 63.52950
 
_symmetry_space_group_name_Hall 'P 1'
_symmetry_space_group_name_H-M  'P 1'
 
loop_
_symmetry_equiv_pos_as_xyz
 'x,y,z' 
 
loop_
_atom_site_label
_atom_site_type_symbol
_atom_site_fract_x
_atom_site_fract_y
_atom_site_fract_z
N          N       0.50469   0.52082   0.36764 
N          N       0.49531   0.47918   0.36764 
C          C       0.46267   0.57075   0.36764 
C          C       0.53733   0.42925   0.36764 
H          H       0.41921   0.58053   0.36764 
H          H       0.58079   0.41947   0.36764 
N          N       0.97684   0.49556   0.32221 
N          N       0.02316   0.50444   0.32221 
C          C       0.92074   0.53268   0.32221 
C          C       0.07926   0.46732   0.32221 
H          H       0.90938   0.57152   0.32221 
H          H       0.09062   0.42848   0.32221 
N          N       0.52624   0.98010   0.35545 
N          N       0.47376   0.01990   0.35545 
C          C       0.53753   0.92927   0.35545 
C          C       0.46247   0.07073   0.35545 
H          H       0.50560   0.91725   0.35545 
H          H       0.49440   0.08275   0.35545 
C          C       0.80289   0.47663   0.33412 
C          C       0.74644   0.52751   0.33916 
C          C       0.19711   0.52337   0.33412 
C          C       0.25356   0.47249   0.33916 
H          H       0.70281   0.52638   0.34337 
H          H       0.29719   0.47362   0.34337 
C          C       0.70745   0.83028   0.34437 
C          C       0.70464   0.77812   0.34346 
C          C       0.29255   0.16972   0.34437 
C          C       0.29535   0.22188   0.34346 
H          H       0.74636   0.74037   0.34014 
H          H       0.25364   0.25963   0.34014 
C          C       0.41220   0.72411   0.36690 
C          C       0.47143   0.72507   0.36318 
C          C       0.58780   0.27589   0.36690 
C          C       0.52857   0.27493   0.36318 
H          H       0.47365   0.76363   0.36137 
H          H       0.52635   0.23637   0.36137 
C          C       0.46512   0.62101   0.36676 
C          C       0.52452   0.62194   0.36625 
C          C       0.53488   0.37899   0.36676 
C          C       0.47548   0.37806   0.36625 
H          H       0.56614   0.58405   0.36737 
H          H       0.43386   0.41595   0.36737 
C          C       0.59190   0.88028   0.35234 
C          C       0.58910   0.82809   0.35110 
C          C       0.40810   0.11972   0.35234 
C          C       0.41090   0.17191   0.35110 
H          H       0.54528   0.82725   0.35337 
H          H       0.45472   0.17275   0.35337 
C          C       0.86427   0.53071   0.32765 
C          C       0.80768   0.58146   0.33277 
C          C       0.13573   0.46929   0.32765 
C          C       0.19232   0.41854   0.33277 
H          H       0.80939   0.62020   0.33233 
H          H       0.19061   0.37980   0.33233 
C          C       0.58665   0.67535   0.35346 
C          C       0.40892   0.67223   0.36583 
C          C       0.52764   0.67401   0.36157 
C          C       0.69221   0.63068   0.34366 
C          C       0.86203   0.47821   0.32821 
C          C       0.74878   0.57987   0.33853 
C          C       0.64235   0.72495   0.34771 
C          C       0.65123   0.88129   0.35012 
C          C       0.64541   0.77703   0.34721 
C          C       0.58917   0.72280   0.35284 
C          C       0.63848   0.62956   0.34884 
C          C       0.69356   0.67862   0.34315 
C          C       0.41335   0.32465   0.35346 
C          C       0.59108   0.32777   0.36583 
C          C       0.47236   0.32599   0.36157 
C          C       0.30779   0.36932   0.34366 
C          C       0.13798   0.52179   0.32821 
C          C       0.25122   0.42013   0.33853 
C          C       0.35765   0.27505   0.34771 
C          C       0.34877   0.11871   0.35012 
C          C       0.35459   0.22297   0.34721 
C          C       0.41083   0.27720   0.35284 
C          C       0.36152   0.37044   0.34884 
C          C       0.30644   0.32138   0.34315 
H          H       0.63738   0.59052   0.34925 
H          H       0.73687   0.68037   0.33898 
H          H       0.54746   0.76053   0.35655 
H          H       0.36262   0.40948   0.34925 
H          H       0.26313   0.31963   0.33898 
H          H       0.45254   0.23947   0.35655 
O          O       0.35048   0.67194   0.36610 
O          O       0.91780   0.42867   0.32378 
O          O       0.65448   0.93221   0.35276 
O          O       0.64952   0.32806   0.36610 
O          O       0.08220   0.57133   0.32378 
O          O       0.34552   0.06779   0.35276 
H          H       0.31622   0.71211   0.37756 
H          H       0.94788   0.42924   0.38168 
H          H       0.67579   0.93487   0.42202 
H          H       0.68378   0.28789   0.37756 
H          H       0.05212   0.57076   0.38168 
H          H       0.32421   0.06513   0.42202 
C          C       0.76654   0.83148   0.33947 
C          C       0.81516   0.77563   0.33546 
C          C       0.77420   0.85910   0.43117 
C          C       0.76873   0.86101   0.24654 
C          C       0.23346   0.16852   0.33947 
C          C       0.18484   0.22437   0.33546 
C          C       0.22580   0.14090   0.43117 
C          C       0.23127   0.13899   0.24654 
H          H       0.85906   0.77625   0.33153 
H          H       0.80903   0.75539   0.26763 
H          H       0.81317   0.75392   0.40426 
H          H       0.73796   0.90035   0.43379 
H          H       0.81796   0.86004   0.42750 
H          H       0.77231   0.83735   0.49996 
H          H       0.76286   0.84064   0.17869 
H          H       0.81242   0.86205   0.24254 
H          H       0.73241   0.90222   0.24974 
H          H       0.14094   0.22375   0.33153 
H          H       0.19097   0.24461   0.26763 
H          H       0.18683   0.24608   0.40426 
H          H       0.26204   0.09965   0.43379 
H          H       0.18204   0.13996   0.42750 
H          H       0.22769   0.16265   0.49996 
H          H       0.23714   0.15936   0.17869 
H          H       0.18758   0.13795   0.24254 
H          H       0.26759   0.09778   0.24974 
C          C       0.79917   0.42474   0.33499 
C          C       0.85935   0.37782   0.32972 
C          C       0.76271   0.42346   0.24622 
C          C       0.76857   0.42157   0.43021 
C          C       0.20083   0.57526   0.33499 
C          C       0.14065   0.62218   0.32972 
C          C       0.23729   0.57654   0.24622 
C          C       0.23143   0.57843   0.43021 
H          H       0.85418   0.34061   0.33058 
H          H       0.88639   0.37838   0.39564 
H          H       0.88198   0.37983   0.25899 
H          H       0.71778   0.45772   0.25069 
H          H       0.75840   0.38583   0.24702 
H          H       0.78492   0.42601   0.17532 
H          H       0.79516   0.42268   0.49639 
H          H       0.76428   0.38392   0.43098 
H          H       0.72360   0.45583   0.43366 
H          H       0.14582   0.65939   0.33058 
H          H       0.11361   0.62162   0.39564 
H          H       0.11802   0.62017   0.25899 
H          H       0.28222   0.54228   0.25069 
H          H       0.24160   0.61417   0.24702 
H          H       0.21508   0.57399   0.17532 
H          H       0.20484   0.57732   0.49639 
H          H       0.23572   0.61608   0.43098 
H          H       0.27640   0.54417   0.43366 
C          C       0.35603   0.77512   0.37187 
C          C       0.37130   0.82093   0.37006 
C          C       0.32388   0.77650   0.46812 
C          C       0.31718   0.77880   0.28325 
C          C       0.64397   0.22488   0.37187 
C          C       0.62870   0.17907   0.37006 
C          C       0.67612   0.22350   0.46812 
C          C       0.68282   0.22120   0.28325 
H          H       0.32976   0.85877   0.37424 
H          H       0.39533   0.81979   0.29900 
H          H       0.40020   0.81797   0.43561 
H          H       0.31264   0.74250   0.46957 
H          H       0.28237   0.81435   0.47259 
H          H       0.35297   0.77358   0.53337 
H          H       0.34132   0.77757   0.21227 
H          H       0.27566   0.81666   0.28708 
H          H       0.30589   0.74483   0.28484 
H          H       0.67024   0.14123   0.37424 
H          H       0.60467   0.18021   0.29900 
H          H       0.59980   0.18203   0.43561 
H          H       0.68736   0.25750   0.46957 
H          H       0.71763   0.18565   0.47259 
H          H       0.64703   0.22642   0.53337 
H          H       0.65868   0.22243   0.21227 
H          H       0.72434   0.18334   0.28708 
H          H       0.69411   0.25517   0.28484 
N          N       0.50469   0.52082   0.86764 
N          N       0.49531   0.47918   0.86764 
C          C       0.46267   0.57075   0.86764 
C          C       0.53733   0.42925   0.86764 
H          H       0.41921   0.58053   0.86764 
H          H       0.58079   0.41947   0.86764 
N          N       0.97684   0.49556   0.82221 
N          N       0.02316   0.50444   0.82221 
C          C       0.92074   0.53268   0.82221 
C          C       0.07926   0.46732   0.82221 
H          H       0.90938   0.57152   0.82221 
H          H       0.09062   0.42848   0.82221 
N          N       0.52624   0.98010   0.85545 
N          N       0.47376   0.01990   0.85545 
C          C       0.53753   0.92927   0.85545 
C          C       0.46247   0.07073   0.85545 
H          H       0.50560   0.91725   0.85545 
H          H       0.49440   0.08275   0.85545 
C          C       0.80289   0.47663   0.83412 
C          C       0.74644   0.52751   0.83917 
C          C       0.19711   0.52337   0.83412 
C          C       0.25356   0.47249   0.83917 
H          H       0.70281   0.52638   0.84337 
H          H       0.29719   0.47362   0.84337 
C          C       0.70745   0.83028   0.84437 
C          C       0.70464   0.77812   0.84346 
C          C       0.29255   0.16972   0.84437 
C          C       0.29535   0.22188   0.84346 
H          H       0.74636   0.74037   0.84014 
H          H       0.25364   0.25963   0.84014 
C          C       0.41220   0.72411   0.86690 
C          C       0.47143   0.72507   0.86318 
C          C       0.58780   0.27589   0.86690 
C          C       0.52857   0.27493   0.86318 
H          H       0.47365   0.76363   0.86137 
H          H       0.52635   0.23637   0.86137 
C          C       0.46512   0.62101   0.86676 
C          C       0.52452   0.62194   0.86625 
C          C       0.53488   0.37899   0.86676 
C          C       0.47548   0.37806   0.86625 
H          H       0.56614   0.58405   0.86737 
H          H       0.43386   0.41595   0.86737 
C          C       0.59190   0.88028   0.85234 
C          C       0.58910   0.82809   0.85110 
C          C       0.40810   0.11972   0.85234 
C          C       0.41090   0.17191   0.85110 
H          H       0.54528   0.82725   0.85337 
H          H       0.45472   0.17275   0.85337 
C          C       0.86427   0.53071   0.82764 
C          C       0.80768   0.58146   0.83277 
C          C       0.13573   0.46929   0.82764 
C          C       0.19232   0.41854   0.83277 
H          H       0.80939   0.62020   0.83234 
H          H       0.19061   0.37980   0.83234 
C          C       0.58665   0.67535   0.85346 
C          C       0.40892   0.67223   0.86583 
C          C       0.52764   0.67401   0.86158 
C          C       0.69221   0.63068   0.84366 
C          C       0.86203   0.47821   0.82821 
C          C       0.74878   0.57987   0.83853 
C          C       0.64235   0.72495   0.84771 
C          C       0.65123   0.88129   0.85012 
C          C       0.64541   0.77703   0.84722 
C          C       0.58917   0.72280   0.85283 
C          C       0.63848   0.62956   0.84884 
C          C       0.69356   0.67862   0.84315 
C          C       0.41335   0.32465   0.85346 
C          C       0.59108   0.32777   0.86583 
C          C       0.47236   0.32599   0.86158 
C          C       0.30779   0.36932   0.84366 
C          C       0.13798   0.52179   0.82821 
C          C       0.25122   0.42013   0.83853 
C          C       0.35765   0.27505   0.84771 
C          C       0.34877   0.11871   0.85012 
C          C       0.35459   0.22297   0.84722 
C          C       0.41083   0.27720   0.85283 
C          C       0.36152   0.37044   0.84884 
C          C       0.30644   0.32138   0.84315 
H          H       0.63738   0.59052   0.84925 
H          H       0.73687   0.68037   0.83898 
H          H       0.54746   0.76053   0.85655 
H          H       0.36262   0.40948   0.84925 
H          H       0.26313   0.31963   0.83898 
H          H       0.45254   0.23947   0.85655 
O          O       0.35048   0.67194   0.86609 
O          O       0.91780   0.42867   0.82378 
O          O       0.65448   0.93221   0.85276 
O          O       0.64952   0.32806   0.86609 
O          O       0.08220   0.57133   0.82378 
O          O       0.34552   0.06779   0.85276 
H          H       0.31622   0.71211   0.87756 
H          H       0.94788   0.42924   0.88168 
H          H       0.67579   0.93487   0.92202 
H          H       0.68378   0.28789   0.87756 
H          H       0.05212   0.57076   0.88168 
H          H       0.32421   0.06513   0.92202 
C          C       0.76654   0.83148   0.83947 
C          C       0.81516   0.77563   0.83546 
C          C       0.77420   0.85910   0.93117 
C          C       0.76873   0.86101   0.74654 
C          C       0.23346   0.16852   0.83947 
C          C       0.18484   0.22437   0.83546 
C          C       0.22580   0.14090   0.93117 
C          C       0.23127   0.13899   0.74654 
H          H       0.85906   0.77625   0.83153 
H          H       0.80903   0.75539   0.76763 
H          H       0.81317   0.75392   0.90426 
H          H       0.73796   0.90035   0.93379 
H          H       0.81796   0.86004   0.92750 
H          H       0.77231   0.83735   0.99996 
H          H       0.76286   0.84064   0.67869 
H          H       0.81242   0.86205   0.74254 
H          H       0.73241   0.90222   0.74974 
H          H       0.14094   0.22375   0.83153 
H          H       0.19097   0.24461   0.76763 
H          H       0.18683   0.24608   0.90426 
H          H       0.26204   0.09965   0.93379 
H          H       0.18204   0.13996   0.92750 
H          H       0.22769   0.16265   0.99996 
H          H       0.23714   0.15936   0.67869 
H          H       0.18758   0.13795   0.74254 
H          H       0.26759   0.09778   0.74974 
C          C       0.79917   0.42474   0.83499 
C          C       0.85935   0.37782   0.82973 
C          C       0.76271   0.42346   0.74622 
C          C       0.76857   0.42157   0.93020 
C          C       0.20083   0.57526   0.83499 
C          C       0.14065   0.62218   0.82973 
C          C       0.23729   0.57654   0.74622 
C          C       0.23143   0.57843   0.93020 
H          H       0.85418   0.34061   0.83058 
H          H       0.88639   0.37838   0.89564 
H          H       0.88198   0.37983   0.75899 
H          H       0.71778   0.45772   0.75069 
H          H       0.75840   0.38583   0.74702 
H          H       0.78492   0.42601   0.67532 
H          H       0.79516   0.42268   0.99639 
H          H       0.76428   0.38392   0.93098 
H          H       0.72360   0.45583   0.93365 
H          H       0.14582   0.65939   0.83058 
H          H       0.11361   0.62162   0.89564 
H          H       0.11802   0.62017   0.75899 
H          H       0.28222   0.54228   0.75069 
H          H       0.24160   0.61417   0.74702 
H          H       0.21508   0.57399   0.67532 
H          H       0.20484   0.57732   0.99639 
H          H       0.23572   0.61608   0.93098 
H          H       0.27640   0.54417   0.93365 
C          C       0.35603   0.77512   0.87187 
C          C       0.37130   0.82093   0.87005 
C          C       0.32388   0.77650   0.96812 
C          C       0.31718   0.77880   0.78324 
C          C       0.64397   0.22488   0.87187 
C          C       0.62870   0.17907   0.87005 
C          C       0.67612   0.22350   0.96812 
C          C       0.68282   0.22120   0.78324 
H          H       0.32976   0.85877   0.87424 
H          H       0.39533   0.81979   0.79900 
H          H       0.40020   0.81797   0.93561 
H          H       0.31264   0.74250   0.96957 
H          H       0.28237   0.81435   0.97259 
H          H       0.35297   0.77358   1.03337 
H          H       0.34132   0.77757   0.71227 
H          H       0.27566   0.81666   0.78708 
H          H       0.30589   0.74483   0.78483 
H          H       0.67024   0.14123   0.87424 
H          H       0.60467   0.18021   0.79900 
H          H       0.59980   0.18203   0.93561 
H          H       0.68736   0.25750   0.96957 
H          H       0.71763   0.18565   0.97259 
H          H       0.64703   0.22642   1.03337 
H          H       0.65868   0.22243   0.71227 
H          H       0.72434   0.18334   0.78708 
H          H       0.69411   0.25517   0.78483 
