data_crystal

_cell_length_a    37.75340
_cell_length_b    37.75340
_cell_length_c    7.60140
_cell_angle_alpha 90.00000
_cell_angle_beta  90.00000
_cell_angle_gamma 120.00000

_space_group_name_Hall 'P 1'
_space_group_name_H-M_alt  'P 1'

loop_
_symmetry_equiv_pos_as_xyz
'x,y,z' 

loop_
_atom_site_label
_atom_site_type_symbol
_atom_site_fract_x
_atom_site_fract_y
_atom_site_fract_z
C          C       0.47260  -0.18759  -1.24171 
C          C       0.44336  -0.17510  -1.24171 
C          C       0.38189  -0.14380  -1.24171 
C          C       0.35956  -0.12269  -1.24171 
C          C       0.48431   0.75410  -1.24171 
C          C       0.55252   0.67181  -1.24171 
C          C       0.57555   0.65140  -1.24171 
C          C       0.45646  -0.23086  -1.24171 
N          N       0.54882   0.73140  -1.24171 
C          C       0.31139  -0.01551  -1.24171 
C          C       0.28795  -0.05927  -1.24171 
C          C       0.15636  -0.12812  -1.24171 
C          C       0.24374  -0.08235  -1.24171 
O          O       0.46950   0.70881  -1.24171 
C          C       0.61439   0.33894  -1.24171 
C          C       0.04202  -0.17488  -1.24171 
C          C       0.08374  -0.14564  -1.24171 
C          C       0.17652  -0.08417  -1.24171 
C          C       0.21996  -0.06184  -1.24171 
C          C       0.97200   0.81341  -1.24171 
C          C       0.82150   0.74520  -1.24171 
C          C       0.77806   0.72217  -1.24171 
C          C       0.01489  -0.15873  -1.24171 
N          N       0.88478   0.74890  -1.24171 
C          C       0.37531  -0.01366  -1.24171 
C          C       0.35499   0.00977  -1.24171 
C          C       0.41773   0.14137  -1.24171 
C          C       0.37612   0.05399  -1.24171 
O          O       0.94152   0.82823  -1.24171 
C          C       0.42676   0.68333  -1.24171 
C          C       0.48531   0.25570  -1.24171 
C          C       0.47283   0.21398  -1.24171 
C          C       0.44152   0.12120  -1.24171 
C          C       0.42041   0.07776  -1.24171 
C          C       0.54362   0.32573  -1.24171 
C          C       0.62592   0.47622  -1.24171 
C          C       0.64632   0.51966  -1.24171 
C          C       0.52859   0.28283  -1.24171 
N          N       0.56632   0.41294  -1.24171 
C          C       0.31324  -0.07759  -1.24171 
C          C       0.35699  -0.05727  -1.24171 
C          C       0.42584  -0.12001  -1.24171 
C          C       0.38007  -0.07840  -1.24171 
O          O       0.58891   0.35620  -1.24171 
C          C       0.95878   0.87096  -1.24171 
C          C       0.52736   0.78308  -1.24171 
C          C       0.55659   0.77059  -1.24171 
C          C       0.61806   0.73929  -1.24171 
C          C       0.64040   0.71818  -1.24171 
C          C       0.51564  -0.15861  -1.24171 
C          C       0.44744  -0.07632  -1.24171 
C          C       0.42440  -0.05591  -1.24171 
C          C       0.54350   0.82635  -1.24171 
N          N       0.45113  -0.13591  -1.24171 
C          C       0.68857   0.61100  -1.24171 
C          C       0.71200   0.65476  -1.24171 
C          C       0.84360   0.72361  -1.24171 
C          C       0.75622   0.67784  -1.24171 
O          O       0.53046  -0.11332  -1.24171 
C          C       0.38556   0.25655  -1.24171 
C          C       0.95793   0.77037  -1.24171 
C          C       0.91621   0.74113  -1.24171 
C          C       0.82344   0.67966  -1.24171 
C          C       0.77999   0.65733  -1.24171 
C          C       0.02796  -0.21792  -1.24171 
C          C       0.17846  -0.14971  -1.24171 
C          C       0.22189  -0.12668  -1.24171 
C          C       0.98507   0.75422  -1.24171 
N          N       0.11517  -0.15341  -1.24171 
C          C       0.62464   0.60915  -1.24171 
C          C       0.64497   0.58572  -1.24171 
C          C       0.58222   0.45412  -1.24171 
C          C       0.62383   0.54150  -1.24171 
O          O       0.05843  -0.23274  -1.24171 
C          C       0.57320  -0.08784  -1.24171 
C          C       0.51465   0.33979  -1.24171 
C          C       0.52713   0.38151  -1.24171 
C          C       0.55844   0.47429  -1.24171 
C          C       0.57954   0.51773  -1.24171 
C          C       0.45633   0.26976  -1.24171 
C          C       0.37404   0.11927  -1.24171 
C          C       0.35364   0.07583  -1.24171 
C          C       0.47137   0.31266  -1.24171 
N          N       0.43363   0.18255  -1.24171 
C          C       0.68672   0.67308  -1.24171 
C          C       0.64297   0.65276  -1.24171 
C          C       0.57411   0.71550  -1.24171 
C          C       0.61988   0.67389  -1.24171 
O          O       0.41104   0.23929  -1.24171 
C          C       0.04118  -0.27547  -1.24171 
H          H       0.40940  -0.19891  -1.24171 
H          H       0.36592  -0.17862  -1.24171 
H          H       0.32470  -0.14061  -1.24171 
H          H       0.51765   0.65417  -1.24171 
H          H       0.55919   0.61656  -1.24171 
H          H       0.42196  -0.25249  -1.24171 
H          H       0.29520   0.00314  -1.24171 
H          H       0.62536   0.33891  -1.38142 
H          H       0.59658   0.30620  -1.19070 
H          H       0.64190   0.35773  -1.15301 
H          H       0.09391  -0.11167  -1.24171 
H          H       0.15767  -0.06819  -1.24171 
H          H       0.23690  -0.02697  -1.24171 
H          H       0.83873   0.78007  -1.24171 
H          H       0.75958   0.73853  -1.24171 
H          H       0.02776  -0.12424  -1.24171 
H          H       0.41015   0.00252  -1.24171 
H          H       0.41375   0.68708  -1.37118 
H          H       0.41306   0.69212  -1.12776 
H          H       0.41881   0.65012  -1.22619 
H          H       0.49663   0.20382  -1.24171 
H          H       0.47635   0.14005  -1.24171 
H          H       0.43833   0.06082  -1.24171 
H          H       0.64355   0.45899  -1.24171 
H          H       0.68116   0.53814  -1.24171 
H          H       0.55022   0.26997  -1.24171 
H          H       0.29458  -0.11243  -1.24171 
H          H       0.93473   0.87905  -1.19916 
H          H       0.96995   0.88330  -1.37976 
H          H       0.98565   0.88519  -1.14620 
H          H       0.59056   0.79440  -1.24171 
H          H       0.63404   0.77411  -1.24171 
H          H       0.67526   0.73610  -1.24171 
H          H       0.48230  -0.05868  -1.24171 
H          H       0.44077  -0.02107  -1.24171 
H          H       0.57800   0.84798  -1.24171 
H          H       0.70475   0.59235  -1.24171 
H          H       0.35398   0.23313  -1.19070 
H          H       0.38275   0.26585  -1.38142 
H          H       0.39930   0.28466  -1.15301 
H          H       0.90605   0.70716  -1.24171 
H          H       0.84229   0.66368  -1.24171 
H          H       0.76305   0.62246  -1.24171 
H          H       0.16123  -0.18458  -1.24171 
H          H       0.24037  -0.14305  -1.24171 
H          H       0.97220   0.71973  -1.24171 
H          H       0.58981   0.59297  -1.24171 
H          H       0.58260  -0.06527  -1.12776 
H          H       0.58329  -0.07031  -1.37118 
H          H       0.58835  -0.10727  -1.22619 
H          H       0.50333   0.39167  -1.24171 
H          H       0.52361   0.45544  -1.24171 
H          H       0.56162   0.53467  -1.24171 
H          H       0.35640   0.13650  -1.24171 
H          H       0.31879   0.05735  -1.24171 
H          H       0.44974   0.32552  -1.24171 
H          H       0.70537   0.70792  -1.24171 
H          H       0.04302  -0.28624  -1.37976 
H          H       0.00780  -0.29049  -1.19916 
H          H       0.05871  -0.28435  -1.14620 
C          C       0.47260  -0.18759  -0.74171 
C          C       0.44336  -0.17510  -0.74171 
C          C       0.38189  -0.14380  -0.74171 
C          C       0.35956  -0.12269  -0.74171 
C          C       0.48431   0.75410  -0.74171 
C          C       0.55252   0.67181  -0.74171 
C          C       0.57555   0.65140  -0.74171 
C          C       0.45646  -0.23086  -0.74171 
N          N       0.54882   0.73140  -0.74171 
C          C       0.31139  -0.01551  -0.74171 
C          C       0.28795  -0.05927  -0.74171 
C          C       0.15636  -0.12812  -0.74171 
C          C       0.24374  -0.08235  -0.74171 
O          O       0.46950   0.70881  -0.74171 
C          C       0.61439   0.33894  -0.74171 
C          C       0.04202  -0.17488  -0.74171 
C          C       0.08374  -0.14564  -0.74171 
C          C       0.17652  -0.08417  -0.74171 
C          C       0.21996  -0.06184  -0.74171 
C          C       0.97200   0.81341  -0.74171 
C          C       0.82150   0.74520  -0.74171 
C          C       0.77806   0.72217  -0.74171 
C          C       0.01489  -0.15873  -0.74171 
N          N       0.88478   0.74890  -0.74171 
C          C       0.37531  -0.01366  -0.74171 
C          C       0.35499   0.00977  -0.74171 
C          C       0.41773   0.14137  -0.74171 
C          C       0.37612   0.05399  -0.74171 
O          O       0.94152   0.82823  -0.74171 
C          C       0.42676   0.68333  -0.74171 
C          C       0.48531   0.25570  -0.74171 
C          C       0.47283   0.21398  -0.74171 
C          C       0.44152   0.12120  -0.74171 
C          C       0.42041   0.07776  -0.74171 
C          C       0.54362   0.32573  -0.74171 
C          C       0.62592   0.47622  -0.74171 
C          C       0.64632   0.51966  -0.74171 
C          C       0.52859   0.28283  -0.74171 
N          N       0.56632   0.41294  -0.74171 
C          C       0.31324  -0.07759  -0.74171 
C          C       0.35699  -0.05727  -0.74171 
C          C       0.42584  -0.12001  -0.74171 
C          C       0.38007  -0.07840  -0.74171 
O          O       0.58891   0.35620  -0.74171 
C          C       0.95878   0.87096  -0.74171 
C          C       0.52736   0.78308  -0.74171 
C          C       0.55659   0.77059  -0.74171 
C          C       0.61806   0.73929  -0.74171 
C          C       0.64040   0.71818  -0.74171 
C          C       0.51564  -0.15861  -0.74171 
C          C       0.44744  -0.07632  -0.74171 
C          C       0.42440  -0.05591  -0.74171 
C          C       0.54350   0.82635  -0.74171 
N          N       0.45113  -0.13591  -0.74171 
C          C       0.68857   0.61100  -0.74171 
C          C       0.71200   0.65476  -0.74171 
C          C       0.84360   0.72361  -0.74171 
C          C       0.75622   0.67784  -0.74171 
O          O       0.53046  -0.11332  -0.74171 
C          C       0.38556   0.25655  -0.74171 
C          C       0.95793   0.77037  -0.74171 
C          C       0.91621   0.74113  -0.74171 
C          C       0.82344   0.67966  -0.74171 
C          C       0.77999   0.65733  -0.74171 
C          C       0.02796  -0.21792  -0.74171 
C          C       0.17846  -0.14971  -0.74171 
C          C       0.22189  -0.12668  -0.74171 
C          C       0.98507   0.75422  -0.74171 
N          N       0.11517  -0.15341  -0.74171 
C          C       0.62464   0.60915  -0.74171 
C          C       0.64497   0.58572  -0.74171 
C          C       0.58222   0.45412  -0.74171 
C          C       0.62383   0.54150  -0.74171 
O          O       0.05843  -0.23274  -0.74171 
C          C       0.57320  -0.08784  -0.74171 
C          C       0.51465   0.33979  -0.74171 
C          C       0.52713   0.38151  -0.74171 
C          C       0.55844   0.47429  -0.74171 
C          C       0.57954   0.51773  -0.74171 
C          C       0.45633   0.26976  -0.74171 
C          C       0.37404   0.11927  -0.74171 
C          C       0.35364   0.07583  -0.74171 
C          C       0.47137   0.31266  -0.74171 
N          N       0.43363   0.18255  -0.74171 
C          C       0.68672   0.67308  -0.74171 
C          C       0.64297   0.65276  -0.74171 
C          C       0.57411   0.71550  -0.74171 
C          C       0.61988   0.67389  -0.74171 
O          O       0.41104   0.23929  -0.74171 
C          C       0.04118  -0.27547  -0.74171 
H          H       0.40940  -0.19891  -0.74171 
H          H       0.36592  -0.17862  -0.74171 
H          H       0.32470  -0.14061  -0.74171 
H          H       0.51765   0.65417  -0.74171 
H          H       0.55919   0.61656  -0.74171 
H          H       0.42196  -0.25249  -0.74171 
H          H       0.29520   0.00314  -0.74171 
H          H       0.62536   0.33891  -0.88142 
H          H       0.59658   0.30620  -0.69070 
H          H       0.64190   0.35773  -0.65301 
H          H       0.09391  -0.11167  -0.74171 
H          H       0.15767  -0.06819  -0.74171 
H          H       0.23690  -0.02697  -0.74171 
H          H       0.83873   0.78007  -0.74171 
H          H       0.75958   0.73853  -0.74171 
H          H       0.02776  -0.12424  -0.74171 
H          H       0.41015   0.00252  -0.74171 
H          H       0.41375   0.68708  -0.87118 
H          H       0.41306   0.69212  -0.62776 
H          H       0.41881   0.65012  -0.72619 
H          H       0.49663   0.20382  -0.74171 
H          H       0.47635   0.14005  -0.74171 
H          H       0.43833   0.06082  -0.74171 
H          H       0.64355   0.45899  -0.74171 
H          H       0.68116   0.53814  -0.74171 
H          H       0.55022   0.26997  -0.74171 
H          H       0.29458  -0.11243  -0.74171 
H          H       0.93473   0.87905  -0.69916 
H          H       0.96995   0.88330  -0.87976 
H          H       0.98565   0.88519  -0.64620 
H          H       0.59056   0.79440  -0.74171 
H          H       0.63404   0.77411  -0.74171 
H          H       0.67526   0.73610  -0.74171 
H          H       0.48230  -0.05868  -0.74171 
H          H       0.44077  -0.02107  -0.74171 
H          H       0.57800   0.84798  -0.74171 
H          H       0.70475   0.59235  -0.74171 
H          H       0.35398   0.23313  -0.69070 
H          H       0.38275   0.26585  -0.88142 
H          H       0.39930   0.28466  -0.65301 
H          H       0.90605   0.70716  -0.74171 
H          H       0.84229   0.66368  -0.74171 
H          H       0.76305   0.62246  -0.74171 
H          H       0.16123  -0.18458  -0.74171 
H          H       0.24037  -0.14305  -0.74171 
H          H       0.97220   0.71973  -0.74171 
H          H       0.58981   0.59297  -0.74171 
H          H       0.58260  -0.06527  -0.62776 
H          H       0.58329  -0.07031  -0.87118 
H          H       0.58835  -0.10727  -0.72619 
H          H       0.50333   0.39167  -0.74171 
H          H       0.52361   0.45544  -0.74171 
H          H       0.56162   0.53467  -0.74171 
H          H       0.35640   0.13650  -0.74171 
H          H       0.31879   0.05735  -0.74171 
H          H       0.44974   0.32552  -0.74171 
H          H       0.70537   0.70792  -0.74171 
H          H       0.04302  -0.28624  -0.87976 
H          H       0.00780  -0.29049  -0.69916 
H          H       0.05871  -0.28435  -0.64620 
