data_crystal

_cell_length_a    25.41700
_cell_length_b    25.41700
_cell_length_c    12.37700
_cell_angle_alpha 90.00000
_cell_angle_beta  90.00000
_cell_angle_gamma 90.00000

_space_group_name_Hall 'P 1'
_space_group_name_H-M_alt  'P 1'

loop_
_symmetry_equiv_pos_as_xyz
'x,y,z' 

loop_
_atom_site_label
_atom_site_type_symbol
_atom_site_fract_x
_atom_site_fract_y
_atom_site_fract_z
C          C       0.30600   0.00800   0.23600 
C          C       0.69400   0.99200   0.23600 
C          C       0.69400   0.99200   0.76400 
C          C       0.30600   0.00800   0.76400 
C          C       0.28300   0.03400   0.32300 
C          C       0.71700   0.96600   0.32300 
C          C       0.71700   0.96600   0.67700 
C          C       0.28300   0.03400   0.67700 
C          C       0.22800   0.03300   0.33900 
C          C       0.77200   0.96700   0.33900 
C          C       0.77200   0.96700   0.66100 
C          C       0.22800   0.03300   0.66100 
C          C       0.46552   0.04472   0.14448 
C          C       0.53448   0.95528   0.14448 
C          C       0.53448   0.95528   0.85552 
C          C       0.46552   0.04472   0.85552 
C          C       0.19500   0.00900   0.26500 
C          C       0.80500   0.99100   0.26500 
C          C       0.80500   0.99100   0.73500 
C          C       0.19500   0.00900   0.73500 
C          C       0.13700   0.00700   0.28200 
C          C       0.86300   0.99300   0.28200 
C          C       0.86300   0.99300   0.71800 
C          C       0.13700   0.00700   0.71800 
C          C       0.35869   0.01589   0.22167 
C          C       0.64131   0.98411   0.22167 
C          C       0.64131   0.98411   0.77833 
C          C       0.35869   0.01589   0.77833 
C          C       0.21800   0.98300   0.16900 
C          C       0.78200   0.01700   0.16900 
C          C       0.78200   0.01700   0.83100 
C          C       0.21800   0.98300   0.83100 
C          C       0.27200   0.98000   0.15700 
C          C       0.72800   0.02000   0.15700 
C          C       0.72800   0.02000   0.84300 
C          C       0.27200   0.98000   0.84300 
N          N       0.39424   0.97955   0.16956 
N          N       0.60576   0.02045   0.16956 
N          N       0.60576   0.02045   0.83044 
N          N       0.39424   0.97955   0.83044 
C          C       0.48217   0.94644   0.13842 
C          C       0.51783   0.05356   0.13842 
C          C       0.51783   0.05356   0.86158 
C          C       0.48217   0.94644   0.86158 
C          C       0.44396   0.99013   0.14870 
C          C       0.55604   0.00987   0.14870 
C          C       0.55604   0.00987   0.85130 
C          C       0.44396   0.99013   0.85130 
N          N       0.05900   0.94500   0.28700 
N          N       0.94100   0.05500   0.28700 
N          N       0.94100   0.05500   0.71300 
N          N       0.05900   0.94500   0.71300 
C          C       0.11200   0.95500   0.28800 
C          C       0.88800   0.04500   0.28800 
C          C       0.88800   0.04500   0.71200 
C          C       0.11200   0.95500   0.71200 
C          C       0.14000   0.90800   0.29000 
C          C       0.86000   0.09200   0.29000 
C          C       0.86000   0.09200   0.71000 
C          C       0.14000   0.90800   0.71000 
C          C       0.05500   0.89200   0.28600 
C          C       0.94500   0.10800   0.28600 
C          C       0.94500   0.10800   0.71400 
C          C       0.05500   0.89200   0.71400 
C          C       0.10400   0.86800   0.28600 
C          C       0.89600   0.13200   0.28600 
C          C       0.89600   0.13200   0.71400 
C          C       0.10400   0.86800   0.71400 
H          H       0.30748   0.05446   0.38106 
H          H       0.69252   0.94554   0.38106 
H          H       0.69252   0.94554   0.61894 
H          H       0.30748   0.05446   0.61894 
H          H       0.21168   0.05215   0.40924 
H          H       0.78832   0.94785   0.40924 
H          H       0.78832   0.94785   0.59076 
H          H       0.21168   0.05215   0.59076 
H          H       0.43883   0.07781   0.14108 
H          H       0.56117   0.92219   0.14108 
H          H       0.56117   0.92219   0.85892 
H          H       0.43883   0.07781   0.85892 
H          H       0.19275   0.96414   0.11013 
H          H       0.80725   0.03586   0.11013 
H          H       0.80725   0.03586   0.88987 
H          H       0.19275   0.96414   0.88987 
H          H       0.28877   0.95845   0.09036 
H          H       0.71123   0.04155   0.09036 
H          H       0.71123   0.04155   0.90964 
H          H       0.28877   0.95845   0.90964 
H          H       0.46754   0.90652   0.13378 
H          H       0.53246   0.09348   0.13378 
H          H       0.53246   0.09348   0.86622 
H          H       0.46754   0.90652   0.86622 
H          H       0.18223   0.90285   0.29183 
H          H       0.81777   0.09715   0.29183 
H          H       0.81777   0.09715   0.70817 
H          H       0.18223   0.90285   0.70817 
H          H       0.11385   0.82672   0.28198 
H          H       0.88615   0.17328   0.28198 
H          H       0.88615   0.17328   0.71802 
H          H       0.11385   0.82672   0.71802 
H          H       0.97193   0.97057   0.71924 
H          H       0.02807   0.02943   0.71924 
H          H       0.02807   0.02943   0.28076 
H          H       0.97193   0.97057   0.28076 
C          C       0.99200   0.30600   0.23600 
C          C       0.00800   0.69400   0.23600 
C          C       0.00800   0.69400   0.76400 
C          C       0.99200   0.30600   0.76400 
C          C       0.96600   0.28300   0.32300 
C          C       0.03400   0.71700   0.32300 
C          C       0.03400   0.71700   0.67700 
C          C       0.96600   0.28300   0.67700 
C          C       0.96700   0.22800   0.33900 
C          C       0.03300   0.77200   0.33900 
C          C       0.03300   0.77200   0.66100 
C          C       0.96700   0.22800   0.66100 
C          C       0.95589   0.46730   0.13581 
C          C       0.04411   0.53270   0.13581 
C          C       0.04411   0.53270   0.86419 
C          C       0.95589   0.46730   0.86419 
C          C       0.99100   0.19500   0.26500 
C          C       0.00900   0.80500   0.26500 
C          C       0.00900   0.80500   0.73500 
C          C       0.99100   0.19500   0.73500 
C          C       0.99300   0.13700   0.28200 
C          C       0.00700   0.86300   0.28200 
C          C       0.00700   0.86300   0.71800 
C          C       0.99300   0.13700   0.71800 
C          C       0.98718   0.36334   0.22251 
C          C       0.01282   0.63667   0.22251 
C          C       0.01282   0.63667   0.77749 
C          C       0.98718   0.36334   0.77749 
C          C       0.01700   0.21800   0.16900 
C          C       0.98300   0.78200   0.16900 
C          C       0.98300   0.78200   0.83100 
C          C       0.01700   0.21800   0.83100 
C          C       0.02000   0.27200   0.15700 
C          C       0.98000   0.72800   0.15700 
C          C       0.98000   0.72800   0.84300 
C          C       0.02000   0.27200   0.84300 
N          N       0.01381   0.38945   0.15093 
N          N       0.98619   0.61055   0.15093 
N          N       0.98619   0.61055   0.84907 
N          N       0.01381   0.38945   0.84907 
C          C       0.05053   0.47799   0.13482 
C          C       0.94947   0.52201   0.13482 
C          C       0.94947   0.52201   0.86518 
C          C       0.05053   0.47799   0.86518 
C          C       0.00658   0.44507   0.13831 
C          C       0.99342   0.55493   0.13831 
C          C       0.99342   0.55493   0.86169 
C          C       0.00658   0.44507   0.86169 
N          N       0.05500   0.05900   0.28700 
N          N       0.94500   0.94100   0.28700 
N          N       0.94500   0.94100   0.71300 
N          N       0.05500   0.05900   0.71300 
C          C       0.04500   0.11200   0.28800 
C          C       0.95500   0.88800   0.28800 
C          C       0.95500   0.88800   0.71200 
C          C       0.04500   0.11200   0.71200 
C          C       0.09200   0.14000   0.29000 
C          C       0.90800   0.86000   0.29000 
C          C       0.90800   0.86000   0.71000 
C          C       0.09200   0.14000   0.71000 
C          C       0.10800   0.05500   0.28600 
C          C       0.89200   0.94500   0.28600 
C          C       0.89200   0.94500   0.71400 
C          C       0.10800   0.05500   0.71400 
C          C       0.13200   0.10400   0.28600 
C          C       0.86800   0.89600   0.28600 
C          C       0.86800   0.89600   0.71400 
C          C       0.13200   0.10400   0.71400 
H          H       0.94554   0.30748   0.38106 
H          H       0.05446   0.69252   0.38106 
H          H       0.05446   0.69252   0.61894 
H          H       0.94554   0.30748   0.61894 
H          H       0.94785   0.21168   0.40924 
H          H       0.05215   0.78832   0.40924 
H          H       0.05215   0.78832   0.59076 
H          H       0.94785   0.21168   0.59076 
H          H       0.92158   0.44211   0.13570 
H          H       0.07842   0.55789   0.13570 
H          H       0.07842   0.55789   0.86430 
H          H       0.92158   0.44211   0.86430 
H          H       0.03586   0.19275   0.11013 
H          H       0.96414   0.80725   0.11013 
H          H       0.96414   0.80725   0.88987 
H          H       0.03586   0.19275   0.88987 
H          H       0.04155   0.28877   0.09036 
H          H       0.95845   0.71123   0.09036 
H          H       0.95845   0.71123   0.90964 
H          H       0.04155   0.28877   0.90964 
H          H       0.08956   0.46100   0.13540 
H          H       0.91044   0.53900   0.13540 
H          H       0.91044   0.53900   0.86460 
H          H       0.08956   0.46100   0.86460 
H          H       0.09715   0.18223   0.29183 
H          H       0.90285   0.81777   0.29183 
H          H       0.90285   0.81777   0.70817 
H          H       0.09715   0.18223   0.70817 
H          H       0.17328   0.11385   0.28198 
H          H       0.82672   0.88615   0.28198 
H          H       0.82672   0.88615   0.71802 
H          H       0.17328   0.11385   0.71802 
H          H       0.96062   0.38415   0.72369 
H          H       0.37753   0.04555   0.72834 
H          H       0.03938   0.61585   0.72369 
H          H       0.62247   0.95445   0.72834 
H          H       0.03938   0.61585   0.27631 
H          H       0.62247   0.95445   0.27166 
H          H       0.96062   0.38415   0.27631 
H          H       0.37753   0.04555   0.27166 
