data_crystal

_cell_length_a    65.53090
_cell_length_b    37.83430
_cell_length_c    6.80000
_cell_angle_alpha 90.00000
_cell_angle_beta  90.00000
_cell_angle_gamma 90.00000

_space_group_name_Hall 'P 1'
_space_group_name_H-M_alt  'P 1'

loop_
_symmetry_equiv_pos_as_xyz
'x,y,z' 

loop_
_atom_site_label
_atom_site_type_symbol
_atom_site_fract_x
_atom_site_fract_y
_atom_site_fract_z
C          C       0.73299   0.13831   0.24879 
C          C       0.55853   0.01268   0.22556 
C          C       0.70926   0.81233   0.24915 
C          C       0.23299   0.63831   0.24879 
C          C       0.05853   0.51268   0.22556 
C          C       0.20926   0.31233   0.24915 
C          C       0.26701   0.13831   0.25121 
C          C       0.44147   0.01268   0.27443 
C          C       0.29074   0.81233   0.25085 
C          C       0.76701   0.63831   0.25121 
C          C       0.94147   0.51268   0.27443 
C          C       0.79074   0.31233   0.25085 
N          N       0.72780   0.17324   0.23758 
N          N       0.54314   0.98855   0.24712 
N          N       0.72929   0.80249   0.26075 
N          N       0.22780   0.67324   0.23758 
N          N       0.04314   0.48855   0.24712 
N          N       0.22929   0.30249   0.26075 
N          N       0.27220   0.17324   0.26242 
N          N       0.45686   0.98855   0.25288 
N          N       0.27071   0.80249   0.23925 
N          N       0.77220   0.67324   0.26242 
N          N       0.95686   0.48855   0.25288 
N          N       0.77071   0.30249   0.23925 
C          C       0.73998   0.20285   0.22809 
C          C       0.52222   0.99268   0.24880 
C          C       0.73795   0.76937   0.27104 
C          C       0.23998   0.70285   0.22809 
C          C       0.02222   0.49268   0.24880 
C          C       0.23795   0.26937   0.27104 
C          C       0.26002   0.20285   0.27191 
C          C       0.47778   0.99268   0.25120 
C          C       0.26205   0.76937   0.22897 
C          C       0.76002   0.70285   0.27191 
C          C       0.97778   0.49268   0.25120 
C          C       0.76205   0.26937   0.22897 
C          C       0.73031   0.23518   0.27427 
C          C       0.51079   0.96101   0.24924 
C          C       0.75895   0.76756   0.22533 
C          C       0.23031   0.73518   0.27427 
C          C       0.01079   0.46101   0.24924 
C          C       0.25895   0.26756   0.22533 
C          C       0.26969   0.23518   0.22573 
C          C       0.48921   0.96101   0.25077 
C          C       0.24105   0.76756   0.27467 
C          C       0.76969   0.73518   0.22573 
C          C       0.98921   0.46101   0.25077 
C          C       0.74105   0.26756   0.27467 
H          H       0.74820   0.13248   0.26055 
H          H       0.55443   0.03836   0.20176 
H          H       0.69869   0.79251   0.23775 
H          H       0.24820   0.63248   0.26055 
H          H       0.05443   0.53836   0.20176 
H          H       0.19869   0.29251   0.23775 
H          H       0.25180   0.13248   0.23946 
H          H       0.44557   0.03836   0.29824 
H          H       0.30131   0.79251   0.26226 
H          H       0.75180   0.63248   0.23946 
H          H       0.94557   0.53836   0.29824 
H          H       0.80131   0.29251   0.26226 
H          H       0.71512   0.23515   0.31017 
H          H       0.51833   0.93729   0.24840 
H          H       0.76659   0.79028   0.18921 
H          H       0.21512   0.73515   0.31017 
H          H       0.01833   0.43729   0.24840 
H          H       0.26659   0.29028   0.18921 
H          H       0.28488   0.23515   0.18984 
H          H       0.48167   0.93729   0.25160 
H          H       0.23341   0.79028   0.31079 
H          H       0.78488   0.73515   0.18984 
H          H       0.98167   0.43729   0.25160 
H          H       0.73341   0.29028   0.31079 
C          C       0.77190   0.23718   0.17335 
C          C       0.98906   0.52502   0.24847 
C          C       0.73900   0.70433   0.32726 
C          C       0.27190   0.73718   0.17335 
C          C       0.48906   0.02502   0.24847 
C          C       0.23900   0.20433   0.32726 
C          C       0.22810   0.23718   0.32665 
C          C       0.01094   0.52502   0.25154 
C          C       0.26100   0.70433   0.17274 
C          C       0.72810   0.73718   0.32665 
C          C       0.51094   0.02502   0.25154 
C          C       0.76100   0.20433   0.17274 
O          O       0.79176   0.23821   0.11120 
O          O       0.97885   0.55648   0.24038 
O          O       0.72953   0.67414   0.39034 
O          O       0.29176   0.73821   0.11120 
O          O       0.47885   0.05648   0.24038 
O          O       0.22953   0.17414   0.39034 
O          O       0.20824   0.23821   0.38880 
O          O       0.02116   0.55648   0.25961 
O          O       0.27047   0.67414   0.10966 
O          O       0.70824   0.73821   0.38880 
O          O       0.52116   0.05648   0.25961 
O          O       0.77047   0.17414   0.10966 
C          C       0.78588   0.37811   0.24503 
C          C       0.91131   0.47177   0.25428 
C          C       0.80227   0.61252   0.25879 
C          C       0.28588   0.87811   0.24503 
C          C       0.41131   0.97177   0.25428 
C          C       0.30227   0.11252   0.25879 
C          C       0.21412   0.37811   0.25497 
C          C       0.08869   0.47177   0.24572 
C          C       0.19773   0.61252   0.24121 
C          C       0.71412   0.87811   0.25497 
C          C       0.58869   0.97177   0.24572 
C          C       0.69773   0.11252   0.24121 
C          C       0.79434   0.41266   0.24566 
C          C       0.88983   0.46681   0.25087 
C          C       0.81527   0.58249   0.25932 
C          C       0.29434   0.91266   0.24566 
C          C       0.38983   0.96681   0.25087 
C          C       0.31527   0.08249   0.25932 
C          C       0.20566   0.41266   0.25433 
C          C       0.11018   0.46681   0.24913 
C          C       0.18473   0.58249   0.24069 
C          C       0.70566   0.91266   0.25433 
C          C       0.61018   0.96681   0.24913 
C          C       0.68473   0.08249   0.24069 
H          H       0.77036   0.37531   0.23983 
H          H       0.92064   0.45013   0.24651 
H          H       0.80867   0.63717   0.26383 
H          H       0.27036   0.87531   0.23983 
H          H       0.42064   0.95013   0.24651 
H          H       0.30867   0.13717   0.26383 
H          H       0.22964   0.37531   0.26016 
H          H       0.07936   0.45013   0.25350 
H          H       0.19133   0.63717   0.23617 
H          H       0.72964   0.87531   0.26016 
H          H       0.57936   0.95013   0.25350 
H          H       0.69133   0.13717   0.23617 
H          H       0.78454   0.43369   0.24094 
H          H       0.88435   0.44155   0.24066 
H          H       0.83068   0.58661   0.26471 
H          H       0.28454   0.93369   0.24094 
H          H       0.38435   0.94155   0.24066 
H          H       0.33068   0.08661   0.26471 
H          H       0.21546   0.43369   0.25906 
H          H       0.11565   0.44155   0.25934 
H          H       0.16932   0.58661   0.23530 
H          H       0.71546   0.93369   0.25906 
H          H       0.61565   0.94155   0.25934 
H          H       0.66932   0.08661   0.23530 
C          C       0.77304   0.57412   0.24486 
C          C       0.81973   0.35361   0.25823 
C          C       0.90620   0.53461   0.27827 
C          C       0.27304   0.07412   0.24486 
C          C       0.31973   0.85361   0.25823 
C          C       0.40620   0.03461   0.27827 
C          C       0.22696   0.57412   0.25514 
C          C       0.18027   0.35361   0.24177 
C          C       0.09380   0.53461   0.22173 
C          C       0.72696   0.07412   0.25514 
C          C       0.68027   0.85361   0.24177 
C          C       0.59380   0.03461   0.22173 
C          C       0.78600   0.54426   0.24569 
C          C       0.82813   0.38802   0.25856 
C          C       0.88484   0.52962   0.27423 
C          C       0.28600   0.04426   0.24569 
C          C       0.32813   0.88802   0.25856 
C          C       0.38484   0.02962   0.27423 
C          C       0.21400   0.54426   0.25432 
C          C       0.17187   0.38802   0.24144 
C          C       0.11516   0.52962   0.22577 
C          C       0.71400   0.04426   0.25432 
C          C       0.67187   0.88802   0.24144 
C          C       0.61516   0.02962   0.22577 
H          H       0.75761   0.56986   0.23941 
H          H       0.82962   0.33266   0.26297 
H          H       0.91153   0.55999   0.28851 
H          H       0.25761   0.06986   0.23941 
H          H       0.32962   0.83266   0.26297 
H          H       0.41153   0.05999   0.28851 
H          H       0.24239   0.56986   0.26059 
H          H       0.17038   0.33266   0.23703 
H          H       0.08847   0.55999   0.21149 
H          H       0.74239   0.06986   0.26059 
H          H       0.67038   0.83266   0.23703 
H          H       0.58847   0.05999   0.21149 
H          H       0.77936   0.51979   0.24069 
H          H       0.84367   0.39037   0.26365 
H          H       0.87577   0.55160   0.28186 
H          H       0.27936   0.01979   0.24069 
H          H       0.34367   0.89037   0.26365 
H          H       0.37577   0.05160   0.28186 
H          H       0.22064   0.51979   0.25931 
H          H       0.15633   0.39037   0.23634 
H          H       0.12423   0.55160   0.21813 
H          H       0.72064   0.01979   0.25931 
H          H       0.65633   0.89037   0.23634 
H          H       0.62423   0.05160   0.21813 
C          C       0.82049   0.51680   0.25394 
C          C       0.82452   0.45348   0.25332 
C          C       0.85416   0.49116   0.25763 
C          C       0.32049   0.01680   0.25394 
C          C       0.32452   0.95348   0.25332 
C          C       0.35416   0.99116   0.25763 
C          C       0.17951   0.51680   0.24605 
C          C       0.17548   0.45348   0.24668 
C          C       0.14584   0.49116   0.24237 
C          C       0.67951   0.01680   0.24605 
C          C       0.67548   0.95348   0.24668 
C          C       0.64584   0.99116   0.24237 
C          C       0.78076   0.60914   0.25154 
C          C       0.79837   0.34759   0.25143 
C          C       0.92009   0.50589   0.26866 
C          C       0.28076   0.10914   0.25154 
C          C       0.29837   0.84759   0.25143 
C          C       0.42009   0.00589   0.26866 
C          C       0.21924   0.60914   0.24847 
C          C       0.20163   0.34759   0.24858 
C          C       0.07991   0.50589   0.23134 
C          C       0.71924   0.10914   0.24847 
C          C       0.70163   0.84759   0.24858 
C          C       0.57991   0.00589   0.23134 
C          C       0.80757   0.54733   0.25300 
C          C       0.81575   0.41880   0.25240 
C          C       0.87586   0.49558   0.26073 
C          C       0.30757   0.04733   0.25300 
C          C       0.31575   0.91880   0.25240 
C          C       0.37586   0.99558   0.26073 
C          C       0.19243   0.54733   0.24701 
C          C       0.18425   0.41880   0.24760 
C          C       0.12414   0.49558   0.23927 
C          C       0.69243   0.04733   0.24701 
C          C       0.68425   0.91880   0.24760 
C          C       0.62414   0.99558   0.23927 
N          N       0.84123   0.51943   0.25674 
N          N       0.81280   0.48327   0.25230 
N          N       0.84514   0.45868   0.25577 
N          N       0.34123   0.01943   0.25674 
N          N       0.31280   0.98326   0.25230 
N          N       0.34514   0.95868   0.25577 
N          N       0.15877   0.51943   0.24326 
N          N       0.18720   0.48327   0.24770 
N          N       0.15486   0.45868   0.24424 
N          N       0.65877   0.01943   0.24326 
N          N       0.68720   0.98326   0.24770 
N          N       0.65486   0.95868   0.24424 
H          H       0.79860   0.21655   0.06694 
H          H       0.98633   0.57886   0.23314 
H          H       0.71530   0.67459   0.43524 
H          H       0.29860   0.71655   0.06694 
H          H       0.48633   0.07886   0.23314 
H          H       0.21530   0.17459   0.43524 
H          H       0.20140   0.21655   0.43306 
H          H       0.01367   0.57886   0.26686 
H          H       0.28470   0.67459   0.06476 
H          H       0.70140   0.71655   0.43306 
H          H       0.51367   0.07886   0.26686 
H          H       0.78470   0.17459   0.06476 
C          C       0.73299   0.13831   0.74879 
C          C       0.55853   0.01268   0.72557 
C          C       0.70926   0.81233   0.74914 
C          C       0.23299   0.63831   0.74879 
C          C       0.05853   0.51268   0.72557 
C          C       0.20926   0.31233   0.74914 
C          C       0.26701   0.13831   0.75121 
C          C       0.44147   0.01268   0.77443 
C          C       0.29074   0.81233   0.75085 
C          C       0.76701   0.63831   0.75121 
C          C       0.94147   0.51268   0.77443 
C          C       0.79074   0.31233   0.75085 
N          N       0.72780   0.17324   0.73758 
N          N       0.54314   0.98855   0.74712 
N          N       0.72929   0.80249   0.76075 
N          N       0.22780   0.67324   0.73758 
N          N       0.04314   0.48855   0.74712 
N          N       0.22929   0.30249   0.76075 
N          N       0.27220   0.17324   0.76242 
N          N       0.45686   0.98855   0.75288 
N          N       0.27071   0.80249   0.73925 
N          N       0.77220   0.67324   0.76242 
N          N       0.95686   0.48855   0.75288 
N          N       0.77071   0.30249   0.73925 
C          C       0.73998   0.20285   0.72809 
C          C       0.52222   0.99268   0.74880 
C          C       0.73795   0.76937   0.77104 
C          C       0.23998   0.70285   0.72809 
C          C       0.02222   0.49268   0.74880 
C          C       0.23795   0.26937   0.77104 
C          C       0.26002   0.20285   0.77191 
C          C       0.47778   0.99268   0.75120 
C          C       0.26205   0.76937   0.72896 
C          C       0.76002   0.70285   0.77191 
C          C       0.97778   0.49268   0.75120 
C          C       0.76205   0.26937   0.72896 
C          C       0.73031   0.23518   0.77427 
C          C       0.51079   0.96101   0.74923 
C          C       0.75895   0.76756   0.72533 
C          C       0.23031   0.73518   0.77427 
C          C       0.01079   0.46101   0.74923 
C          C       0.25895   0.26756   0.72533 
C          C       0.26969   0.23518   0.72572 
C          C       0.48921   0.96101   0.75077 
C          C       0.24105   0.76756   0.77467 
C          C       0.76969   0.73518   0.72572 
C          C       0.98921   0.46101   0.75077 
C          C       0.74105   0.26756   0.77467 
H          H       0.74820   0.13248   0.76055 
H          H       0.55443   0.03836   0.70176 
H          H       0.69869   0.79251   0.73774 
H          H       0.24820   0.63248   0.76055 
H          H       0.05443   0.53836   0.70176 
H          H       0.19869   0.29251   0.73774 
H          H       0.25180   0.13248   0.73945 
H          H       0.44557   0.03836   0.79824 
H          H       0.30131   0.79251   0.76226 
H          H       0.75180   0.63248   0.73945 
H          H       0.94557   0.53836   0.79824 
H          H       0.80131   0.29251   0.76226 
H          H       0.71512   0.23515   0.81017 
H          H       0.51833   0.93729   0.74840 
H          H       0.76659   0.79028   0.68920 
H          H       0.21512   0.73515   0.81017 
H          H       0.01833   0.43729   0.74840 
H          H       0.26659   0.29028   0.68920 
H          H       0.28488   0.23515   0.68983 
H          H       0.48167   0.93729   0.75160 
H          H       0.23341   0.79028   0.81080 
H          H       0.78488   0.73515   0.68983 
H          H       0.98167   0.43729   0.75160 
H          H       0.73341   0.29028   0.81080 
C          C       0.77190   0.23718   0.67334 
C          C       0.98906   0.52502   0.74847 
C          C       0.73900   0.70433   0.82726 
C          C       0.27190   0.73718   0.67334 
C          C       0.48906   0.02502   0.74847 
C          C       0.23900   0.20433   0.82726 
C          C       0.22810   0.23718   0.82665 
C          C       0.01094   0.52502   0.75154 
C          C       0.26100   0.70433   0.67274 
C          C       0.72810   0.73718   0.82665 
C          C       0.51094   0.02502   0.75154 
C          C       0.76100   0.20433   0.67274 
O          O       0.79176   0.23821   0.61120 
O          O       0.97885   0.55648   0.74039 
O          O       0.72953   0.67414   0.89034 
O          O       0.29176   0.73821   0.61120 
O          O       0.47885   0.05648   0.74039 
O          O       0.22953   0.17414   0.89034 
O          O       0.20824   0.23821   0.88880 
O          O       0.02116   0.55648   0.75961 
O          O       0.27047   0.67414   0.60966 
O          O       0.70824   0.73821   0.88880 
O          O       0.52116   0.05648   0.75961 
O          O       0.77047   0.17414   0.60966 
C          C       0.78588   0.37811   0.74503 
C          C       0.91131   0.47177   0.75428 
C          C       0.80227   0.61252   0.75879 
C          C       0.28588   0.87811   0.74503 
C          C       0.41131   0.97177   0.75428 
C          C       0.30227   0.11252   0.75879 
C          C       0.21412   0.37811   0.75497 
C          C       0.08869   0.47177   0.74572 
C          C       0.19773   0.61252   0.74121 
C          C       0.71412   0.87811   0.75497 
C          C       0.58869   0.97177   0.74572 
C          C       0.69773   0.11252   0.74121 
C          C       0.79434   0.41266   0.74566 
C          C       0.88983   0.46681   0.75087 
C          C       0.81527   0.58249   0.75932 
C          C       0.29434   0.91266   0.74566 
C          C       0.38983   0.96681   0.75087 
C          C       0.31527   0.08249   0.75932 
C          C       0.20566   0.41266   0.75433 
C          C       0.11018   0.46681   0.74913 
C          C       0.18473   0.58249   0.74069 
C          C       0.70566   0.91266   0.75433 
C          C       0.61018   0.96681   0.74913 
C          C       0.68473   0.08249   0.74069 
H          H       0.77036   0.37531   0.73983 
H          H       0.92064   0.45013   0.74650 
H          H       0.80867   0.63717   0.76383 
H          H       0.27036   0.87531   0.73983 
H          H       0.42064   0.95013   0.74650 
H          H       0.30867   0.13717   0.76383 
H          H       0.22964   0.37531   0.76016 
H          H       0.07936   0.45013   0.75350 
H          H       0.19133   0.63717   0.73617 
H          H       0.72964   0.87531   0.76016 
H          H       0.57936   0.95013   0.75350 
H          H       0.69133   0.13717   0.73617 
H          H       0.78454   0.43369   0.74094 
H          H       0.88435   0.44155   0.74066 
H          H       0.83068   0.58661   0.76471 
H          H       0.28454   0.93369   0.74094 
H          H       0.38435   0.94155   0.74066 
H          H       0.33068   0.08661   0.76471 
H          H       0.21546   0.43369   0.75906 
H          H       0.11565   0.44155   0.75935 
H          H       0.16932   0.58661   0.73530 
H          H       0.71546   0.93369   0.75906 
H          H       0.61565   0.94155   0.75935 
H          H       0.66932   0.08661   0.73530 
C          C       0.77304   0.57412   0.74487 
C          C       0.81973   0.35361   0.75823 
C          C       0.90620   0.53461   0.77827 
C          C       0.27304   0.07412   0.74487 
C          C       0.31973   0.85361   0.75823 
C          C       0.40620   0.03461   0.77827 
C          C       0.22696   0.57412   0.75514 
C          C       0.18027   0.35361   0.74177 
C          C       0.09380   0.53461   0.72173 
C          C       0.72696   0.07412   0.75514 
C          C       0.68027   0.85361   0.74177 
C          C       0.59380   0.03461   0.72173 
C          C       0.78600   0.54426   0.74569 
C          C       0.82813   0.38802   0.75856 
C          C       0.88484   0.52962   0.77423 
C          C       0.28600   0.04426   0.74569 
C          C       0.32813   0.88802   0.75856 
C          C       0.38484   0.02962   0.77423 
C          C       0.21400   0.54426   0.75431 
C          C       0.17187   0.38802   0.74143 
C          C       0.11516   0.52962   0.72577 
C          C       0.71400   0.04426   0.75431 
C          C       0.67187   0.88802   0.74143 
C          C       0.61516   0.02962   0.72577 
H          H       0.75761   0.56986   0.73942 
H          H       0.82962   0.33266   0.76297 
H          H       0.91153   0.55999   0.78851 
H          H       0.25761   0.06986   0.73942 
H          H       0.32962   0.83266   0.76297 
H          H       0.41153   0.05999   0.78851 
H          H       0.24239   0.56986   0.76059 
H          H       0.17038   0.33266   0.73703 
H          H       0.08847   0.55999   0.71149 
H          H       0.74239   0.06986   0.76059 
H          H       0.67038   0.83266   0.73703 
H          H       0.58847   0.05999   0.71149 
H          H       0.77936   0.51979   0.74069 
H          H       0.84367   0.39037   0.76365 
H          H       0.87577   0.55160   0.78187 
H          H       0.27936   0.01979   0.74069 
H          H       0.34367   0.89037   0.76365 
H          H       0.37577   0.05160   0.78187 
H          H       0.22064   0.51979   0.75931 
H          H       0.15633   0.39037   0.73635 
H          H       0.12423   0.55160   0.71814 
H          H       0.72064   0.01979   0.75931 
H          H       0.65633   0.89037   0.73635 
H          H       0.62423   0.05160   0.71814 
C          C       0.82049   0.51680   0.75394 
C          C       0.82452   0.45348   0.75332 
C          C       0.85416   0.49116   0.75763 
C          C       0.32049   0.01680   0.75394 
C          C       0.32452   0.95348   0.75332 
C          C       0.35416   0.99116   0.75763 
C          C       0.17951   0.51680   0.74606 
C          C       0.17548   0.45348   0.74668 
C          C       0.14584   0.49116   0.74237 
C          C       0.67951   0.01680   0.74606 
C          C       0.67548   0.95348   0.74668 
C          C       0.64584   0.99116   0.74237 
C          C       0.78076   0.60914   0.75154 
C          C       0.79837   0.34759   0.75143 
C          C       0.92009   0.50589   0.76867 
C          C       0.28076   0.10914   0.75154 
C          C       0.29837   0.84759   0.75143 
C          C       0.42009   0.00589   0.76867 
C          C       0.21924   0.60914   0.74847 
C          C       0.20163   0.34759   0.74857 
C          C       0.07991   0.50589   0.73134 
C          C       0.71924   0.10914   0.74847 
C          C       0.70163   0.84759   0.74857 
C          C       0.57991   0.00589   0.73134 
C          C       0.80757   0.54733   0.75299 
C          C       0.81575   0.41880   0.75240 
C          C       0.87586   0.49558   0.76073 
C          C       0.30757   0.04733   0.75299 
C          C       0.31575   0.91880   0.75240 
C          C       0.37586   0.99558   0.76073 
C          C       0.19243   0.54733   0.74701 
C          C       0.18425   0.41880   0.74760 
C          C       0.12414   0.49558   0.73927 
C          C       0.69243   0.04733   0.74701 
C          C       0.68425   0.91880   0.74760 
C          C       0.62414   0.99558   0.73927 
N          N       0.84123   0.51943   0.75674 
N          N       0.81280   0.48327   0.75230 
N          N       0.84514   0.45868   0.75577 
N          N       0.34123   0.01943   0.75674 
N          N       0.31280   0.98326   0.75230 
N          N       0.34514   0.95868   0.75577 
N          N       0.15877   0.51943   0.74326 
N          N       0.18720   0.48327   0.74770 
N          N       0.15486   0.45868   0.74424 
N          N       0.65877   0.01943   0.74326 
N          N       0.68720   0.98326   0.74770 
N          N       0.65486   0.95868   0.74424 
H          H       0.79860   0.21655   0.56694 
H          H       0.98633   0.57886   0.73314 
H          H       0.71530   0.67459   0.93524 
H          H       0.29860   0.71655   0.56694 
H          H       0.48633   0.07886   0.73314 
H          H       0.21530   0.17459   0.93524 
H          H       0.20140   0.21655   0.93306 
H          H       0.01367   0.57886   0.76686 
H          H       0.28470   0.67459   0.56476 
H          H       0.70140   0.71655   0.93306 
H          H       0.51367   0.07886   0.76686 
H          H       0.78470   0.17459   0.56476 
