data_crystal

_cell_length_a    22.84740
_cell_length_b    22.84740
_cell_length_c    7.00380
_cell_angle_alpha 90.00000
_cell_angle_beta  90.00000
_cell_angle_gamma 120.00000

_space_group_name_Hall 'P 1'
_space_group_name_H-M_alt  'P 1'

loop_
_symmetry_equiv_pos_as_xyz
'x,y,z' 

loop_
_atom_site_label
_atom_site_type_symbol
_atom_site_fract_x
_atom_site_fract_y
_atom_site_fract_z
C          C       0.74052   0.37026   0.25000 
C          C       0.62974   0.37026   0.25000 
C          C       0.62974   0.25948   0.25000 
C          C       0.70146   0.29854   0.25000 
C          C       0.70146   0.40293   0.25000 
C          C       0.59707   0.29854   0.25000 
H          H       0.72676   0.27324   0.25000 
H          H       0.72676   0.45352   0.25000 
H          H       0.54648   0.27324   0.25000 
C          C       0.25948   0.62974   0.25000 
C          C       0.37026   0.62974   0.25000 
C          C       0.37026   0.74052   0.25000 
C          C       0.29854   0.70146   0.25000 
C          C       0.29854   0.59707   0.25000 
C          C       0.40293   0.70146   0.25000 
H          H       0.27324   0.72676   0.25000 
H          H       0.27324   0.54648   0.25000 
H          H       0.45352   0.72676   0.25000 
C          C       0.18635   0.59318   0.25000 
C          C       0.40682   0.59318   0.25000 
C          C       0.40682   0.81365   0.25000 
C          C       0.14672   0.62539   0.25000 
C          C       0.37461   0.52133   0.25000 
C          C       0.47867   0.85328   0.25000 
C          C       0.37461   0.85328   0.25000 
C          C       0.47867   0.62539   0.25000 
C          C       0.14672   0.52133   0.25000 
C          C       0.07558   0.58986   0.25000 
C          C       0.41014   0.48572   0.25000 
C          C       0.51428   0.92443   0.25000 
C          C       0.41014   0.92443   0.25000 
C          C       0.51428   0.58986   0.25000 
C          C       0.07558   0.48572   0.25000 
C          C       0.03637   0.51819   0.25000 
C          C       0.48181   0.51819   0.25000 
C          C       0.48181   0.96363   0.25000 
C          C       0.96363   0.48181   0.25000 
C          C       0.51819   0.48181   0.25000 
C          C       0.51819   0.03637   0.25000 
C          C       0.92443   0.51428   0.25000 
C          C       0.48572   0.41014   0.25000 
C          C       0.58986   0.07558   0.25000 
C          C       0.48572   0.07558   0.25000 
C          C       0.58986   0.51428   0.25000 
C          C       0.92443   0.41014   0.25000 
C          C       0.85328   0.47867   0.25000 
C          C       0.52133   0.37461   0.25000 
C          C       0.62539   0.14672   0.25000 
C          C       0.52133   0.14672   0.25000 
C          C       0.62539   0.47867   0.25000 
C          C       0.85328   0.37461   0.25000 
C          C       0.81365   0.40682   0.25000 
C          C       0.59318   0.40682   0.25000 
C          C       0.59318   0.18635   0.25000 
H          H       0.16797   0.67650   0.25000 
H          H       0.32350   0.49147   0.25000 
H          H       0.50853   0.83203   0.25000 
H          H       0.32350   0.83203   0.25000 
H          H       0.50853   0.67650   0.25000 
H          H       0.16797   0.49147   0.25000 
H          H       0.05367   0.61918   0.25000 
H          H       0.38082   0.43448   0.25000 
H          H       0.56552   0.94633   0.25000 
H          H       0.38082   0.94633   0.25000 
H          H       0.56552   0.61918   0.25000 
H          H       0.05367   0.43448   0.25000 
H          H       0.94633   0.56552   0.25000 
H          H       0.43448   0.38082   0.25000 
H          H       0.61918   0.05367   0.25000 
H          H       0.43448   0.05367   0.25000 
H          H       0.61918   0.56552   0.25000 
H          H       0.94633   0.38082   0.25000 
H          H       0.83203   0.50853   0.25000 
H          H       0.49147   0.32350   0.25000 
H          H       0.67650   0.16797   0.25000 
H          H       0.49147   0.16797   0.25000 
H          H       0.67650   0.50853   0.25000 
H          H       0.83203   0.32350   0.25000 
C          C       0.74052   0.37026   0.75000 
C          C       0.62974   0.37026   0.75000 
C          C       0.62974   0.25948   0.75000 
C          C       0.70146   0.29854   0.75000 
C          C       0.70146   0.40293   0.75000 
C          C       0.59707   0.29854   0.75000 
H          H       0.72676   0.27324   0.75000 
H          H       0.72676   0.45352   0.75000 
H          H       0.54648   0.27324   0.75000 
C          C       0.25948   0.62974   0.75000 
C          C       0.37026   0.62974   0.75000 
C          C       0.37026   0.74052   0.75000 
C          C       0.29854   0.70146   0.75000 
C          C       0.29854   0.59707   0.75000 
C          C       0.40293   0.70146   0.75000 
H          H       0.27324   0.72676   0.75000 
H          H       0.27324   0.54648   0.75000 
H          H       0.45352   0.72676   0.75000 
C          C       0.18635   0.59318   0.75000 
C          C       0.40682   0.59318   0.75000 
C          C       0.40682   0.81365   0.75000 
C          C       0.14672   0.62539   0.75000 
C          C       0.37461   0.52133   0.75000 
C          C       0.47867   0.85328   0.75000 
C          C       0.37461   0.85328   0.75000 
C          C       0.47867   0.62539   0.75000 
C          C       0.14672   0.52133   0.75000 
C          C       0.07558   0.58986   0.75000 
C          C       0.41014   0.48572   0.75000 
C          C       0.51428   0.92443   0.75000 
C          C       0.41014   0.92443   0.75000 
C          C       0.51428   0.58986   0.75000 
C          C       0.07558   0.48572   0.75000 
C          C       0.03637   0.51819   0.75000 
C          C       0.48181   0.51819   0.75000 
C          C       0.48181   0.96363   0.75000 
C          C       0.96363   0.48181   0.75000 
C          C       0.51819   0.48181   0.75000 
C          C       0.51819   0.03637   0.75000 
C          C       0.92443   0.51428   0.75000 
C          C       0.48572   0.41014   0.75000 
C          C       0.58986   0.07558   0.75000 
C          C       0.48572   0.07558   0.75000 
C          C       0.58986   0.51428   0.75000 
C          C       0.92443   0.41014   0.75000 
C          C       0.85328   0.47867   0.75000 
C          C       0.52133   0.37461   0.75000 
C          C       0.62539   0.14672   0.75000 
C          C       0.52133   0.14672   0.75000 
C          C       0.62539   0.47867   0.75000 
C          C       0.85328   0.37461   0.75000 
C          C       0.81365   0.40682   0.75000 
C          C       0.59318   0.40682   0.75000 
C          C       0.59318   0.18635   0.75000 
H          H       0.16797   0.67650   0.75000 
H          H       0.32350   0.49147   0.75000 
H          H       0.50853   0.83203   0.75000 
H          H       0.32350   0.83203   0.75000 
H          H       0.50853   0.67650   0.75000 
H          H       0.16797   0.49147   0.75000 
H          H       0.05367   0.61918   0.75000 
H          H       0.38082   0.43448   0.75000 
H          H       0.56552   0.94633   0.75000 
H          H       0.38082   0.94633   0.75000 
H          H       0.56552   0.61918   0.75000 
H          H       0.05367   0.43448   0.75000 
H          H       0.94633   0.56552   0.75000 
H          H       0.43448   0.38082   0.75000 
H          H       0.61918   0.05367   0.75000 
H          H       0.43448   0.05367   0.75000 
H          H       0.61918   0.56552   0.75000 
H          H       0.94633   0.38082   0.75000 
H          H       0.83203   0.50853   0.75000 
H          H       0.49147   0.32350   0.75000 
H          H       0.67650   0.16797   0.75000 
H          H       0.49147   0.16797   0.75000 
H          H       0.67650   0.50853   0.75000 
H          H       0.83203   0.32350   0.75000 
