data_crystal

_cell_length_a    26.02900
_cell_length_b    26.02900
_cell_length_c    7.03800
_cell_angle_alpha 80.18000
_cell_angle_beta  80.18000
_cell_angle_gamma 120.00000

_space_group_name_Hall 'P 1'
_space_group_name_H-M_alt  'P 1'

loop_
_symmetry_equiv_pos_as_xyz
'x,y,z' 

loop_
_atom_site_label
_atom_site_type_symbol
_atom_site_fract_x
_atom_site_fract_y
_atom_site_fract_z
H          H       0.69241   0.10437   0.74710 
H          H       0.73360   0.21182   0.74710 
H          H       0.40418   0.91076   0.74710 
H          H       0.51255   0.67999   0.74710 
H          H       0.34541   0.51476   0.74710 
H          H       0.39794   0.45995   0.74710 
H          H       0.62251   0.51350   0.74710 
H          H       0.68889   0.47270   0.74710 
H          H       0.45329   0.42022   0.74710 
N          N       0.71856   0.39227   0.74710 
C          C       0.65874   0.35563   0.74710 
C          C       0.61842   0.38051   0.74710 
C          C       0.64143   0.44230   0.74710 
C          C       0.60340   0.46574   0.74710 
C          C       0.54151   0.42786   0.74710 
C          C       0.51847   0.36625   0.74710 
C          C       0.55646   0.34276   0.74710 
C          C       0.50040   0.45152   0.74710 
N          N       0.52063   0.50846   0.74710 
C          C       0.48652   0.53819   0.74710 
C          C       0.42396   0.50780   0.74710 
C          C       0.39349   0.53940   0.74710 
C          C       0.42465   0.60183   0.74710 
C          C       0.48705   0.63194   0.74710 
C          C       0.51745   0.60032   0.74710 
C          C       0.39229   0.63529   0.74710 
N          N       0.33197   0.60598   0.74710 
H          H       0.51508   0.07862   0.74710 
H          H       0.55588   0.18581   0.74710 
H          H       0.60836   0.00269   0.74710 
N          N       0.63631   0.29592   0.74710 
C          C       0.67295   0.27274   0.74710 
C          C       0.64807   0.20753   0.74710 
C          C       0.58628   0.16875   0.74710 
C          C       0.56284   0.10728   0.74710 
C          C       0.60072   0.08328   0.74710 
C          C       0.66233   0.12184   0.74710 
C          C       0.68582   0.18332   0.74710 
C          C       0.57706   0.01850   0.74710 
H          H       0.11782   0.46304   0.74710 
H          H       0.34859   0.80218   0.74710 
H          H       0.51382   0.80027   0.74710 
H          H       0.56863   0.90761   0.74710 
N          N       0.52012   0.98179   0.74710 
C          C       0.49039   0.91796   0.74710 
C          C       0.52078   0.88578   0.74710 
C          C       0.48918   0.82371   0.74710 
C          C       0.42675   0.79243   0.74710 
C          C       0.39664   0.82473   0.74710 
C          C       0.42826   0.88675   0.74710 
C          C       0.39329   0.72662   0.74710 
N          N       0.42260   0.69561   0.74710 
H          H       0.92421   0.55766   0.74710 
H          H       0.81676   0.49141   0.74710 
H          H       0.56554   0.62440   0.74710 
H          H       0.22640   0.51603   0.74710 
H          H       0.22831   0.68317   0.74710 
H          H       0.12097   0.63064   0.74710 
H          H       0.47092   0.33617   0.74710 
H          H       0.53717   0.29498   0.74710 
N          N       0.04679   0.50795   0.74710 
C          C       0.11062   0.54206   0.74710 
C          C       0.14280   0.60462   0.74710 
C          C       0.20487   0.63509   0.74710 
C          C       0.23615   0.60393   0.74710 
C          C       0.20385   0.54153   0.74710 
C          C       0.14183   0.51113   0.74710 
C          C       0.30196   0.63629   0.74710 
N          N       0.33297   0.69661   0.74710 
H          H       0.94996   0.40607   0.74710 
H          H       0.84277   0.33969   0.74710 
H          H       0.02589   0.57529   0.74710 
N          N       0.73266   0.31002   0.74710 
C          C       0.75584   0.36984   0.74710 
C          C       0.82105   0.41016   0.74710 
C          C       0.85983   0.38715   0.74710 
C          C       0.92130   0.42518   0.74710 
C          C       0.94530   0.48707   0.74710 
C          C       0.90674   0.51011   0.74710 
C          C       0.84526   0.47212   0.74710 
C          C       0.01008   0.52818   0.74710 
H          H       0.30759   0.89563   0.25290 
H          H       0.26640   0.78818   0.25290 
H          H       0.59582   0.08924   0.25290 
H          H       0.48745   0.32001   0.25290 
H          H       0.65459   0.48524   0.25290 
H          H       0.60206   0.54005   0.25290 
H          H       0.37749   0.48650   0.25290 
H          H       0.31111   0.52730   0.25290 
H          H       0.54671   0.57978   0.25290 
N          N       0.28144   0.60773   0.25290 
C          C       0.34126   0.64437   0.25290 
C          C       0.38158   0.61949   0.25290 
C          C       0.35857   0.55770   0.25290 
C          C       0.39660   0.53426   0.25290 
C          C       0.45849   0.57214   0.25290 
C          C       0.48153   0.63375   0.25290 
C          C       0.44354   0.65724   0.25290 
C          C       0.49960   0.54848   0.25290 
N          N       0.47937   0.49154   0.25290 
C          C       0.51348   0.46181   0.25290 
C          C       0.57604   0.49220   0.25290 
C          C       0.60651   0.46060   0.25290 
C          C       0.57535   0.39817   0.25290 
C          C       0.51295   0.36806   0.25290 
C          C       0.48255   0.39968   0.25290 
C          C       0.60771   0.36471   0.25290 
N          N       0.66803   0.39402   0.25290 
H          H       0.48492   0.92138   0.25290 
H          H       0.44412   0.81419   0.25290 
H          H       0.39164   0.99731   0.25290 
N          N       0.36369   0.70408   0.25290 
C          C       0.32705   0.72726   0.25290 
C          C       0.35193   0.79247   0.25290 
C          C       0.41372   0.83125   0.25290 
C          C       0.43716   0.89272   0.25290 
C          C       0.39928   0.91672   0.25290 
C          C       0.33767   0.87816   0.25290 
C          C       0.31418   0.81668   0.25290 
C          C       0.42294   0.98150   0.25290 
H          H       0.88218   0.53696   0.25290 
H          H       0.65141   0.19782   0.25290 
H          H       0.48618   0.19973   0.25290 
H          H       0.43137   0.09239   0.25290 
N          N       0.47988   0.01821   0.25290 
C          C       0.50961   0.08204   0.25290 
C          C       0.47922   0.11422   0.25290 
C          C       0.51082   0.17629   0.25290 
C          C       0.57325   0.20757   0.25290 
C          C       0.60336   0.17527   0.25290 
C          C       0.57174   0.11325   0.25290 
C          C       0.60671   0.27338   0.25290 
N          N       0.57740   0.30439   0.25290 
H          H       0.07579   0.44234   0.25290 
H          H       0.18324   0.50859   0.25290 
H          H       0.43446   0.37560   0.25290 
H          H       0.77360   0.48397   0.25290 
H          H       0.77169   0.31683   0.25290 
H          H       0.87903   0.36936   0.25290 
H          H       0.52908   0.66383   0.25290 
H          H       0.46283   0.70502   0.25290 
N          N       0.95321   0.49205   0.25290 
C          C       0.88938   0.45794   0.25290 
C          C       0.85720   0.39538   0.25290 
C          C       0.79513   0.36491   0.25290 
C          C       0.76385   0.39607   0.25290 
C          C       0.79615   0.45847   0.25290 
C          C       0.85817   0.48887   0.25290 
C          C       0.69804   0.36371   0.25290 
N          N       0.66703   0.30339   0.25290 
H          H       0.05004   0.59393   0.25290 
H          H       0.15723   0.66031   0.25290 
H          H       0.97411   0.42471   0.25290 
N          N       0.26734   0.68998   0.25290 
C          C       0.24416   0.63016   0.25290 
C          C       0.17895   0.58984   0.25290 
C          C       0.14017   0.61285   0.25290 
C          C       0.07870   0.57482   0.25290 
C          C       0.05470   0.51293   0.25290 
C          C       0.09326   0.48989   0.25290 
C          C       0.15474   0.52788   0.25290 
C          C       0.98992   0.47182   0.25290 
