data_crystal
 
_cell_length_a    16.69420
_cell_length_b    16.69420
_cell_length_c    6.79780
_cell_angle_alpha 90.00000
_cell_angle_beta  90.00000
_cell_angle_gamma 120.00000
 
_symmetry_space_group_name_Hall 'P 1'
_symmetry_space_group_name_H-M  'P 1'
 
loop_
_symmetry_equiv_pos_as_xyz
 'x,y,z' 
 
loop_
_atom_site_label
_atom_site_type_symbol
_atom_site_fract_x
_atom_site_fract_y
_atom_site_fract_z
_atom_site_charge
N          N       0.64803   0.17428   0.32533   0.0000000000
H          H       0.70833   0.18767   0.28058   0.0000000000
N          N       0.82572   0.47376   0.32533   0.0000000000
H          H       0.81233   0.52066   0.28058   0.0000000000
N          N       0.52625   0.35197   0.32533   0.0000000000
H          H       0.47934   0.29167   0.28058   0.0000000000
N          N       0.35197   0.82572   0.32533   0.0000000000
H          H       0.29167   0.81233   0.28058   0.0000000000
N          N       0.17428   0.52625   0.32533   0.0000000000
H          H       0.18767   0.47934   0.28058   0.0000000000
N          N       0.47376   0.64803   0.32533   0.0000000000
H          H       0.52066   0.70833   0.28058   0.0000000000
N          N       0.35197   0.82572   0.67468   0.0000000000
H          H       0.29167   0.81233   0.71942   0.0000000000
N          N       0.17428   0.52625   0.67468   0.0000000000
H          H       0.18767   0.47934   0.71942   0.0000000000
N          N       0.47376   0.64803   0.67468   0.0000000000
H          H       0.52066   0.70833   0.71942   0.0000000000
N          N       0.64803   0.17428   0.67468   0.0000000000
H          H       0.70833   0.18767   0.71942   0.0000000000
N          N       0.82572   0.47376   0.67468   0.0000000000
H          H       0.81233   0.52066   0.71942   0.0000000000
N          N       0.52625   0.35197   0.67468   0.0000000000
H          H       0.47934   0.29167   0.71942   0.0000000000
C          C       0.57454   0.09235   0.27034   0.0000000000
C          C       0.90765   0.48219   0.27034   0.0000000000
C          C       0.51781   0.42546   0.27034   0.0000000000
C          C       0.42546   0.90765   0.27034   0.0000000000
C          C       0.09235   0.51781   0.27034   0.0000000000
C          C       0.48219   0.57454   0.27034   0.0000000000
C          C       0.42546   0.90765   0.72966   0.0000000000
C          C       0.09235   0.51781   0.72966   0.0000000000
C          C       0.48219   0.57454   0.72966   0.0000000000
C          C       0.57454   0.09235   0.72966   0.0000000000
C          C       0.90765   0.48219   0.72966   0.0000000000
C          C       0.51781   0.42546   0.72966   0.0000000000
C          C       0.59174   0.01828   0.24869   0.0000000000
C          C       0.98172   0.57346   0.24869   0.0000000000
C          C       0.42654   0.40826   0.24869   0.0000000000
C          C       0.40826   0.98172   0.24869   0.0000000000
C          C       0.01828   0.42654   0.24869   0.0000000000
C          C       0.57346   0.59174   0.24869   0.0000000000
C          C       0.40826   0.98172   0.75131   0.0000000000
C          C       0.01828   0.42654   0.75131   0.0000000000
C          C       0.57346   0.59174   0.75131   0.0000000000
C          C       0.59174   0.01828   0.75131   0.0000000000
C          C       0.98172   0.57346   0.75131   0.0000000000
C          C       0.42654   0.40826   0.75131   0.0000000000
C          C       0.51770   0.92640   0.25454   0.0000000000
C          C       0.07360   0.59130   0.25454   0.0000000000
C          C       0.40870   0.48230   0.25454   0.0000000000
C          C       0.48230   0.07360   0.25454   0.0000000000
C          C       0.92640   0.40870   0.25454   0.0000000000
C          C       0.59130   0.51770   0.25454   0.0000000000
C          C       0.48230   0.07360   0.74546   0.0000000000
C          C       0.92640   0.40870   0.74546   0.0000000000
C          C       0.59130   0.51770   0.74546   0.0000000000
C          C       0.51770   0.92640   0.74546   0.0000000000
C          C       0.07360   0.59130   0.74546   0.0000000000
C          C       0.40870   0.48230   0.74546   0.0000000000
H          H       0.65808   0.03036   0.24322   0.0000000000
H          H       0.96964   0.62772   0.24322   0.0000000000
H          H       0.37228   0.34192   0.24322   0.0000000000
H          H       0.34192   0.96964   0.24322   0.0000000000
H          H       0.03036   0.37228   0.24322   0.0000000000
H          H       0.62772   0.65808   0.24322   0.0000000000
H          H       0.34192   0.96964   0.75678   0.0000000000
H          H       0.03036   0.37228   0.75678   0.0000000000
H          H       0.62772   0.65808   0.75678   0.0000000000
H          H       0.65808   0.03036   0.75678   0.0000000000
H          H       0.96964   0.62772   0.75678   0.0000000000
H          H       0.37228   0.34192   0.75678   0.0000000000
H          H       0.53126   0.87324   0.25253   0.0000000000
H          H       0.12676   0.65802   0.25253   0.0000000000
H          H       0.34198   0.46874   0.25253   0.0000000000
H          H       0.46874   0.12676   0.25253   0.0000000000
H          H       0.87324   0.34198   0.25253   0.0000000000
H          H       0.65802   0.53126   0.25253   0.0000000000
H          H       0.46874   0.12676   0.74748   0.0000000000
H          H       0.87324   0.34198   0.74748   0.0000000000
H          H       0.65802   0.53126   0.74748   0.0000000000
H          H       0.53126   0.87324   0.74748   0.0000000000
H          H       0.12676   0.65802   0.74748   0.0000000000
H          H       0.34198   0.46874   0.74748   0.0000000000
P          P       0.35075   0.76598   0.50000   0.0000000000
P          P       0.23402   0.58477   0.50000   0.0000000000
P          P       0.41523   0.64925   0.50000   0.0000000000
N          N       0.42835   0.74485   0.50000   0.0000000000
N          N       0.25515   0.68349   0.50000   0.0000000000
N          N       0.31651   0.57166   0.50000   0.0000000000
P          P       0.64925   0.23402   0.50000   0.0000000000
P          P       0.76598   0.41523   0.50000   0.0000000000
P          P       0.58477   0.35075   0.50000   0.0000000000
N          N       0.57166   0.25515   0.50000   0.0000000000
N          N       0.74485   0.31651   0.50000   0.0000000000
N          N       0.68349   0.42835   0.50000   0.0000000000
