data_crystal
 
_cell_length_a    16.69420
_cell_length_b    16.69420
_cell_length_c    13.59560
_cell_angle_alpha 90.00000
_cell_angle_beta  90.00000
_cell_angle_gamma 120.00000
 
_space_group_name_Hall 'P 1'
_space_group_name_H-M_alt  'P 1'
 
loop_
_symmetry_equiv_pos_as_xyz
 'x,y,z' 
 
loop_
_atom_site_label
_atom_site_type_symbol
_atom_site_fract_x
_atom_site_fract_y
_atom_site_fract_z
N          N       0.64803   0.17428   0.16267 
H          H       0.70833   0.18767   0.14029 
N          N       0.82572   0.47376   0.16267 
H          H       0.81233   0.52066   0.14029 
N          N       0.52625   0.35197   0.16267 
H          H       0.47934   0.29167   0.14029 
N          N       0.35197   0.82572   0.16267 
H          H       0.29167   0.81233   0.14029 
N          N       0.17428   0.52625   0.16267 
H          H       0.18767   0.47934   0.14029 
N          N       0.47376   0.64803   0.16267 
H          H       0.52066   0.70833   0.14029 
N          N       0.35197   0.82572   0.33734 
H          H       0.29167   0.81233   0.35971 
N          N       0.17428   0.52625   0.33734 
H          H       0.18767   0.47934   0.35971 
N          N       0.47376   0.64803   0.33734 
H          H       0.52066   0.70833   0.35971 
N          N       0.64803   0.17428   0.33734 
H          H       0.70833   0.18767   0.35971 
N          N       0.82572   0.47376   0.33734 
H          H       0.81233   0.52066   0.35971 
N          N       0.52625   0.35197   0.33734 
H          H       0.47934   0.29167   0.35971 
C          C       0.57454   0.09235   0.13517 
C          C       0.90765   0.48219   0.13517 
C          C       0.51781   0.42546   0.13517 
C          C       0.42546   0.90765   0.13517 
C          C       0.09235   0.51781   0.13517 
C          C       0.48219   0.57454   0.13517 
C          C       0.42546   0.90765   0.36483 
C          C       0.09235   0.51781   0.36483 
C          C       0.48219   0.57454   0.36483 
C          C       0.57454   0.09235   0.36483 
C          C       0.90765   0.48219   0.36483 
C          C       0.51781   0.42546   0.36483 
C          C       0.59174   0.01828   0.12435 
C          C       0.98172   0.57346   0.12435 
C          C       0.42654   0.40826   0.12435 
C          C       0.40826   0.98172   0.12435 
C          C       0.01828   0.42654   0.12435 
C          C       0.57346   0.59174   0.12435 
C          C       0.40826   0.98172   0.37566 
C          C       0.01828   0.42654   0.37566 
C          C       0.57346   0.59174   0.37566 
C          C       0.59174   0.01828   0.37566 
C          C       0.98172   0.57346   0.37566 
C          C       0.42654   0.40826   0.37566 
C          C       0.51770   0.92640   0.12727 
C          C       0.07360   0.59130   0.12727 
C          C       0.40870   0.48230   0.12727 
C          C       0.48230   0.07360   0.12727 
C          C       0.92640   0.40870   0.12727 
C          C       0.59130   0.51770   0.12727 
C          C       0.48230   0.07360   0.37273 
C          C       0.92640   0.40870   0.37273 
C          C       0.59130   0.51770   0.37273 
C          C       0.51770   0.92640   0.37273 
C          C       0.07360   0.59130   0.37273 
C          C       0.40870   0.48230   0.37273 
H          H       0.65808   0.03036   0.12161 
H          H       0.96964   0.62772   0.12161 
H          H       0.37228   0.34192   0.12161 
H          H       0.34192   0.96964   0.12161 
H          H       0.03036   0.37228   0.12161 
H          H       0.62772   0.65808   0.12161 
H          H       0.34192   0.96964   0.37839 
H          H       0.03036   0.37228   0.37839 
H          H       0.62772   0.65808   0.37839 
H          H       0.65808   0.03036   0.37839 
H          H       0.96964   0.62772   0.37839 
H          H       0.37228   0.34192   0.37839 
H          H       0.53126   0.87324   0.12626 
H          H       0.12676   0.65802   0.12626 
H          H       0.34198   0.46874   0.12626 
H          H       0.46874   0.12676   0.12626 
H          H       0.87324   0.34198   0.12626 
H          H       0.65802   0.53126   0.12626 
H          H       0.46874   0.12676   0.37374 
H          H       0.87324   0.34198   0.37374 
H          H       0.65802   0.53126   0.37374 
H          H       0.53126   0.87324   0.37374 
H          H       0.12676   0.65802   0.37374 
H          H       0.34198   0.46874   0.37374 
P          P       0.35075   0.76598   0.25000 
P          P       0.23402   0.58477   0.25000 
P          P       0.41523   0.64925   0.25000 
N          N       0.42835   0.74485   0.25000 
N          N       0.25515   0.68349   0.25000 
N          N       0.31651   0.57166   0.25000 
P          P       0.64925   0.23402   0.25000 
P          P       0.76598   0.41523   0.25000 
P          P       0.58477   0.35075   0.25000 
N          N       0.57166   0.25515   0.25000 
N          N       0.74485   0.31651   0.25000 
N          N       0.68349   0.42835   0.25000 
N          N       0.64803   0.17428   0.66267 
H          H       0.70833   0.18767   0.64029 
N          N       0.82572   0.47376   0.66267 
H          H       0.81233   0.52066   0.64029 
N          N       0.52625   0.35197   0.66267 
H          H       0.47934   0.29167   0.64029 
N          N       0.35197   0.82572   0.66267 
H          H       0.29167   0.81233   0.64029 
N          N       0.17428   0.52625   0.66267 
H          H       0.18767   0.47934   0.64029 
N          N       0.47376   0.64803   0.66267 
H          H       0.52066   0.70833   0.64029 
N          N       0.35197   0.82572   0.83734 
H          H       0.29167   0.81233   0.85971 
N          N       0.17428   0.52625   0.83734 
H          H       0.18767   0.47934   0.85971 
N          N       0.47376   0.64803   0.83734 
H          H       0.52066   0.70833   0.85971 
N          N       0.64803   0.17428   0.83734 
H          H       0.70833   0.18767   0.85971 
N          N       0.82572   0.47376   0.83734 
H          H       0.81233   0.52066   0.85971 
N          N       0.52625   0.35197   0.83734 
H          H       0.47934   0.29167   0.85971 
C          C       0.57454   0.09235   0.63517 
C          C       0.90765   0.48219   0.63517 
C          C       0.51781   0.42546   0.63517 
C          C       0.42546   0.90765   0.63517 
C          C       0.09235   0.51781   0.63517 
C          C       0.48219   0.57454   0.63517 
C          C       0.42546   0.90765   0.86483 
C          C       0.09235   0.51781   0.86483 
C          C       0.48219   0.57454   0.86483 
C          C       0.57454   0.09235   0.86483 
C          C       0.90765   0.48219   0.86483 
C          C       0.51781   0.42546   0.86483 
C          C       0.59174   0.01828   0.62435 
C          C       0.98172   0.57346   0.62435 
C          C       0.42654   0.40826   0.62435 
C          C       0.40826   0.98172   0.62435 
C          C       0.01828   0.42654   0.62435 
C          C       0.57346   0.59174   0.62435 
C          C       0.40826   0.98172   0.87566 
C          C       0.01828   0.42654   0.87566 
C          C       0.57346   0.59174   0.87566 
C          C       0.59174   0.01828   0.87566 
C          C       0.98172   0.57346   0.87566 
C          C       0.42654   0.40826   0.87566 
C          C       0.51770   0.92640   0.62727 
C          C       0.07360   0.59130   0.62727 
C          C       0.40870   0.48230   0.62727 
C          C       0.48230   0.07360   0.62727 
C          C       0.92640   0.40870   0.62727 
C          C       0.59130   0.51770   0.62727 
C          C       0.48230   0.07360   0.87273 
C          C       0.92640   0.40870   0.87273 
C          C       0.59130   0.51770   0.87273 
C          C       0.51770   0.92640   0.87273 
C          C       0.07360   0.59130   0.87273 
C          C       0.40870   0.48230   0.87273 
H          H       0.65808   0.03036   0.62161 
H          H       0.96964   0.62772   0.62161 
H          H       0.37228   0.34192   0.62161 
H          H       0.34192   0.96964   0.62161 
H          H       0.03036   0.37228   0.62161 
H          H       0.62772   0.65808   0.62161 
H          H       0.34192   0.96964   0.87839 
H          H       0.03036   0.37228   0.87839 
H          H       0.62772   0.65808   0.87839 
H          H       0.65808   0.03036   0.87839 
H          H       0.96964   0.62772   0.87839 
H          H       0.37228   0.34192   0.87839 
H          H       0.53126   0.87324   0.62626 
H          H       0.12676   0.65802   0.62626 
H          H       0.34198   0.46874   0.62626 
H          H       0.46874   0.12676   0.62626 
H          H       0.87324   0.34198   0.62626 
H          H       0.65802   0.53126   0.62626 
H          H       0.46874   0.12676   0.87374 
H          H       0.87324   0.34198   0.87374 
H          H       0.65802   0.53126   0.87374 
H          H       0.53126   0.87324   0.87374 
H          H       0.12676   0.65802   0.87374 
H          H       0.34198   0.46874   0.87374 
P          P       0.35075   0.76598   0.75000 
P          P       0.23402   0.58477   0.75000 
P          P       0.41523   0.64925   0.75000 
N          N       0.42835   0.74485   0.75000 
N          N       0.25515   0.68349   0.75000 
N          N       0.31651   0.57166   0.75000 
P          P       0.64925   0.23402   0.75000 
P          P       0.76598   0.41523   0.75000 
P          P       0.58477   0.35075   0.75000 
N          N       0.57166   0.25515   0.75000 
N          N       0.74485   0.31651   0.75000 
N          N       0.68349   0.42835   0.75000 
