data_crystal
 
_cell_length_a    22.89590
_cell_length_b    22.89590
_cell_length_c    5.38000
_cell_angle_alpha 90.00000
_cell_angle_beta  90.00000
_cell_angle_gamma 120.00000
 
_symmetry_space_group_name_Hall 'P 1'
_symmetry_space_group_name_H-M  'P 1'
 
loop_
_symmetry_equiv_pos_as_xyz
 'x,y,z' 
 
loop_
_atom_site_label
_atom_site_type_symbol
_atom_site_fract_x
_atom_site_fract_y
_atom_site_fract_z
_atom_site_charge
H          H       0.37273   0.44754   0.38896   0.0000000000
H          H       0.55246   0.92519   0.38896   0.0000000000
H          H       0.07481   0.62727   0.38897   0.0000000000
H          H       0.62727   0.55246   0.38895   0.0000000000
H          H       0.44754   0.07481   0.38897   0.0000000000
H          H       0.92519   0.37273   0.38897   0.0000000000
H          H       0.66428   0.48479   0.44489   0.0000000000
H          H       0.51521   0.17950   0.44489   0.0000000000
H          H       0.82050   0.33572   0.44490   0.0000000000
H          H       0.33572   0.51521   0.44489   0.0000000000
H          H       0.48479   0.82050   0.44489   0.0000000000
H          H       0.17950   0.66428   0.44490   0.0000000000
C          C       0.54099   0.57071   0.38212   0.0000000000
C          C       0.42929   0.97029   0.38213   0.0000000000
C          C       0.02971   0.45901   0.38214   0.0000000000
C          C       0.45901   0.42929   0.38212   0.0000000000
C          C       0.57071   0.02971   0.38213   0.0000000000
C          C       0.97029   0.54099   0.38214   0.0000000000
C          C       0.57008   0.52897   0.38713   0.0000000000
C          C       0.47103   0.04111   0.38714   0.0000000000
C          C       0.95889   0.42992   0.38715   0.0000000000
C          C       0.42992   0.47103   0.38713   0.0000000000
C          C       0.52897   0.95889   0.38714   0.0000000000
C          C       0.04111   0.57008   0.38715   0.0000000000
C          C       0.53026   0.45782   0.39002   0.0000000000
C          C       0.54218   0.07244   0.39003   0.0000000000
C          C       0.92756   0.46974   0.39003   0.0000000000
C          C       0.46974   0.54218   0.39002   0.0000000000
C          C       0.45782   0.92756   0.39003   0.0000000000
C          C       0.07244   0.53026   0.39004   0.0000000000
C          C       0.62197   0.43026   0.42478   0.0000000000
C          C       0.56974   0.19171   0.42478   0.0000000000
C          C       0.80829   0.37803   0.42479   0.0000000000
C          C       0.37803   0.56974   0.42478   0.0000000000
C          C       0.43026   0.80829   0.42478   0.0000000000
C          C       0.19171   0.62197   0.42479   0.0000000000
S          S       0.59509   0.65797   0.36332   0.0000000000
S          S       0.34203   0.93713   0.36334   0.0000000000
S          S       0.06287   0.40491   0.36334   0.0000000000
O          O       0.56411   0.69307   0.16603   0.0000000000
O          O       0.30693   0.87105   0.16605   0.0000000000
O          O       0.12895   0.43589   0.16605   0.0000000000
O          O       0.66670   0.67605   0.25559   0.0000000000
O          O       0.32395   0.99066   0.25561   0.0000000000
O          O       0.00934   0.33330   0.25561   0.0000000000
O          O       0.60429   0.69167   0.62938   0.0000000000
O          O       0.30833   0.91262   0.62940   0.0000000000
O          O       0.08739   0.39571   0.62941   0.0000000000
H          H       0.56514   0.73711   0.25672   0.0000000000
H          H       0.25407   0.85760   0.12664   0.0000000000
H          H       0.17348   0.47868   0.25547   0.0000000000
H          H       0.42533   0.37217   0.37167   0.0000000000
H          H       0.62783   0.05316   0.37168   0.0000000000
H          H       0.94684   0.57467   0.37169   0.0000000000
N          N       0.55693   0.41606   0.39700   0.0000000000
H          H       0.52343   0.36072   0.37824   0.0000000000
N          N       0.58394   0.14087   0.39701   0.0000000000
H          H       0.63928   0.16271   0.37825   0.0000000000
N          N       0.85913   0.44307   0.39702   0.0000000000
H          H       0.83729   0.47657   0.37826   0.0000000000
N          N       0.44307   0.58394   0.39700   0.0000000000
H          H       0.47657   0.63928   0.37824   0.0000000000
N          N       0.41606   0.85913   0.39701   0.0000000000
H          H       0.36072   0.83729   0.37825   0.0000000000
N          N       0.14087   0.55693   0.39702   0.0000000000
H          H       0.16271   0.52343   0.37826   0.0000000000
C          C       0.59757   0.31049   0.43467   0.0000000000
C          C       0.64300   0.38114   0.43135   0.0000000000
C          C       0.68952   0.28708   0.43468   0.0000000000
C          C       0.61886   0.26186   0.43135   0.0000000000
C          C       0.71292   0.40243   0.43468   0.0000000000
C          C       0.73814   0.35700   0.43136   0.0000000000
C          C       0.40243   0.68952   0.43467   0.0000000000
C          C       0.35700   0.61886   0.43135   0.0000000000
C          C       0.31049   0.71292   0.43468   0.0000000000
C          C       0.38114   0.73814   0.43135   0.0000000000
C          C       0.28708   0.59757   0.43468   0.0000000000
C          C       0.26186   0.64300   0.43136   0.0000000000
O          O       0.53552   0.28927   0.44400   0.0000000000
O          O       0.71073   0.24625   0.44401   0.0000000000
O          O       0.75375   0.46448   0.44401   0.0000000000
O          O       0.46448   0.71073   0.44400   0.0000000000
O          O       0.28927   0.75375   0.44401   0.0000000000
O          O       0.24625   0.53552   0.44401   0.0000000000
