data_crystal

_cell_length_a    25.58360
_cell_length_b    25.58360
_cell_length_c    8.43280
_cell_angle_alpha 90.00000
_cell_angle_beta  90.00000
_cell_angle_gamma 120.00000

_space_group_name_Hall 'P 1'
_space_group_name_H-M_alt  'P 1'

loop_
_symmetry_equiv_pos_as_xyz
'x,y,z' 

loop_
_atom_site_label
_atom_site_type_symbol
_atom_site_fract_x
_atom_site_fract_y
_atom_site_fract_z
C          C       0.38951   0.66875  -0.01338 
C          C       0.33125   0.72076  -0.01338 
C          C       0.27924   0.61049  -0.01338 
C          C       0.38738   0.72286  -0.01238 
C          C       0.27714   0.66452  -0.01238 
C          C       0.33548   0.61262  -0.01238 
N          N       0.33507   0.55944  -0.00747 
N          N       0.44055   0.77563  -0.00747 
N          N       0.22437   0.66493  -0.00747 
N          N       0.22862   0.55541  -0.01345 
N          N       0.44459   0.67321  -0.01345 
N          N       0.32678   0.77138  -0.01345 
C          C       0.77612   0.66474  -0.01588 
C          C       0.33526   0.11139  -0.01588 
C          C       0.88861   0.22388  -0.01588 
C          C       0.85270   0.63430  -0.04929 
C          C       0.36570   0.21840  -0.04929 
C          C       0.78160   0.14730  -0.04929 
C          C       0.81940   0.71579   0.06969 
C          C       0.28421   0.10361   0.06969 
C          C       0.89639   0.18060   0.06969 
C          C       0.79360   0.62371  -0.07311 
C          C       0.37629   0.16989  -0.07311 
C          C       0.83011   0.20640  -0.07311 
H          H       0.86419   0.60417  -0.09392 
H          H       0.39582   0.26001  -0.09392 
H          H       0.73999   0.13581  -0.09392 
H          H       0.80843   0.74607   0.11590 
H          H       0.25393   0.06237   0.11590 
H          H       0.93763   0.19157   0.11590 
H          H       0.76357   0.58596  -0.13439 
H          H       0.41404   0.17761  -0.13439 
H          H       0.82239   0.23643  -0.13439 
C          C       0.31347   0.20972   0.03127 
C          C       0.79028   0.10375   0.03127 
C          C       0.89625   0.68653   0.03127 
C          C       0.27333   0.15175   0.09233 
C          C       0.84825   0.12157   0.09233 
C          C       0.87843   0.72667   0.09233 
H          H       0.90834   0.76447   0.15376 
H          H       0.23553   0.14388   0.15376 
H          H       0.85612   0.09166   0.15376 
C          C       0.28466   0.50355  -0.00386 
C          C       0.49645   0.78112  -0.00386 
C          C       0.21888   0.71534  -0.00386 
C          C       0.22738   0.50145  -0.01020 
C          C       0.49855   0.72593  -0.01020 
C          C       0.27407   0.77262  -0.01020 
C          C       0.29746   0.45544   0.00404 
C          C       0.54456   0.84202   0.00404 
C          C       0.15798   0.70254   0.00404 
C          C       0.34888   0.46221   0.08742 
C          C       0.53779   0.88667   0.08742 
C          C       0.11333   0.65112   0.08742 
C          C       0.36322   0.41565   0.09309 
C          C       0.58435   0.94757   0.09309 
C          C       0.05243   0.63678   0.09309 
C          C       0.32577   0.35995   0.01860 
C          C       0.64005   0.96582   0.01860 
C          C       0.03418   0.67423   0.01860 
C          C       0.27496   0.35255  -0.06572 
C          C       0.64745   0.92241  -0.06572 
C          C       0.07759   0.72504  -0.06572 
C          C       0.26173   0.39955  -0.07311 
C          C       0.60045   0.86218  -0.07311 
C          C       0.13782   0.73827  -0.07311 
H          H       0.37664   0.50165   0.14611 
H          H       0.49835   0.87499   0.14611 
H          H       0.12501   0.62336   0.14611 
H          H       0.40058   0.42200   0.15366 
H          H       0.57800   0.97858   0.15366 
H          H       0.02142   0.59942   0.15366 
H          H       0.24774   0.31307  -0.12416 
H          H       0.68693   0.93467  -0.12416 
H          H       0.06533   0.75226  -0.12416 
H          H       0.22511   0.39204  -0.13601 
H          H       0.60796   0.83307  -0.13601 
H          H       0.16693   0.77489  -0.13601 
C          C       0.16798   0.45070  -0.00834 
C          C       0.54930   0.71729  -0.00834 
C          C       0.28271   0.83202  -0.00834 
C          C       0.15281   0.39880   0.08297 
C          C       0.60120   0.75401   0.08297 
C          C       0.24599   0.84719   0.08297 
C          C       0.09408   0.34889   0.08686 
C          C       0.65111   0.74518   0.08686 
C          C       0.25482   0.90592   0.08686 
C          C       0.04734   0.34953   0.00118 
C          C       0.65047   0.69781   0.00118 
C          C       0.30219   0.95266   0.00118 
C          C       0.06059   0.40115  -0.08894 
C          C       0.59885   0.65944  -0.08894 
C          C       0.34055   0.93941  -0.08894 
C          C       0.12004   0.45071  -0.09381 
C          C       0.54929   0.66933  -0.09381 
C          C       0.33067   0.87996  -0.09381 
H          H       0.18473   0.39685   0.14849 
H          H       0.60315   0.78788   0.14849 
H          H       0.21212   0.81527   0.14849 
H          H       0.08532   0.31204   0.15398 
H          H       0.68796   0.77328   0.15398 
H          H       0.22672   0.91468   0.15398 
H          H       0.02744   0.40273  -0.15239 
H          H       0.59727   0.62471  -0.15239 
H          H       0.37529   0.97256  -0.15239 
H          H       0.12829   0.48724  -0.16196 
H          H       0.51276   0.64106  -0.16196 
H          H       0.35894   0.87170  -0.16196 
N          N       0.33944   0.31524   0.02697 
N          N       0.68476   0.02420   0.02697 
N          N       0.97580   0.66056   0.02697 
C          C       0.29904   0.25582   0.04686 
C          C       0.74418   0.04322   0.04686 
C          C       0.95678   0.70095   0.04686 
H          H       0.25529   0.24356   0.07381 
H          H       0.75644   0.01173   0.07381 
H          H       0.98827   0.74471   0.07381 
N          N       0.99290   0.29890   0.01326 
N          N       0.70110   0.69400   0.01326 
N          N       0.30600   0.00710   0.01326 
C          C       0.93760   0.28227  -0.04571 
C          C       0.71773   0.65533  -0.04571 
C          C       0.34467   0.06240  -0.04571 
H          H       0.93135   0.31185  -0.11353 
H          H       0.68815   0.61950  -0.11353 
H          H       0.38050   0.06865  -0.11353 
C          C       0.38951   0.66875   0.48662 
C          C       0.33125   0.72076   0.48662 
C          C       0.27924   0.61049   0.48662 
C          C       0.38738   0.72286   0.48762 
C          C       0.27714   0.66452   0.48762 
C          C       0.33548   0.61262   0.48762 
N          N       0.33507   0.55944   0.49253 
N          N       0.44055   0.77563   0.49253 
N          N       0.22437   0.66493   0.49253 
N          N       0.22862   0.55541   0.48655 
N          N       0.44459   0.67321   0.48655 
N          N       0.32678   0.77138   0.48655 
C          C       0.77612   0.66474   0.48412 
C          C       0.33526   0.11139   0.48412 
C          C       0.88861   0.22388   0.48412 
C          C       0.85270   0.63430   0.45071 
C          C       0.36570   0.21840   0.45071 
C          C       0.78160   0.14730   0.45071 
C          C       0.81940   0.71579   0.56969 
C          C       0.28421   0.10361   0.56969 
C          C       0.89639   0.18060   0.56969 
C          C       0.79360   0.62371   0.42689 
C          C       0.37629   0.16989   0.42689 
C          C       0.83011   0.20640   0.42689 
H          H       0.86419   0.60417   0.40607 
H          H       0.39582   0.26001   0.40607 
H          H       0.73999   0.13581   0.40607 
H          H       0.80843   0.74607   0.61590 
H          H       0.25393   0.06237   0.61590 
H          H       0.93763   0.19157   0.61590 
H          H       0.76357   0.58596   0.36561 
H          H       0.41404   0.17761   0.36561 
H          H       0.82239   0.23643   0.36561 
C          C       0.31347   0.20972   0.53127 
C          C       0.79028   0.10375   0.53127 
C          C       0.89625   0.68653   0.53127 
C          C       0.27333   0.15175   0.59233 
C          C       0.84825   0.12157   0.59233 
C          C       0.87843   0.72667   0.59233 
H          H       0.90834   0.76447   0.65375 
H          H       0.23553   0.14388   0.65375 
H          H       0.85612   0.09166   0.65375 
C          C       0.28466   0.50355   0.49614 
C          C       0.49645   0.78112   0.49614 
C          C       0.21888   0.71534   0.49614 
C          C       0.22738   0.50145   0.48980 
C          C       0.49855   0.72593   0.48980 
C          C       0.27407   0.77262   0.48980 
C          C       0.29746   0.45544   0.50404 
C          C       0.54456   0.84202   0.50404 
C          C       0.15798   0.70254   0.50404 
C          C       0.34888   0.46221   0.58742 
C          C       0.53779   0.88667   0.58742 
C          C       0.11333   0.65112   0.58742 
C          C       0.36322   0.41565   0.59310 
C          C       0.58435   0.94757   0.59310 
C          C       0.05243   0.63678   0.59310 
C          C       0.32577   0.35995   0.51860 
C          C       0.64005   0.96582   0.51860 
C          C       0.03418   0.67423   0.51860 
C          C       0.27496   0.35255   0.43427 
C          C       0.64745   0.92241   0.43427 
C          C       0.07759   0.72504   0.43427 
C          C       0.26173   0.39955   0.42689 
C          C       0.60045   0.86218   0.42689 
C          C       0.13782   0.73827   0.42689 
H          H       0.37664   0.50165   0.64611 
H          H       0.49835   0.87499   0.64611 
H          H       0.12501   0.62336   0.64611 
H          H       0.40058   0.42200   0.65365 
H          H       0.57800   0.97858   0.65365 
H          H       0.02142   0.59942   0.65365 
H          H       0.24774   0.31307   0.37584 
H          H       0.68693   0.93467   0.37584 
H          H       0.06533   0.75226   0.37584 
H          H       0.22511   0.39204   0.36399 
H          H       0.60796   0.83307   0.36399 
H          H       0.16693   0.77489   0.36399 
C          C       0.16798   0.45070   0.49167 
C          C       0.54930   0.71729   0.49167 
C          C       0.28271   0.83202   0.49167 
C          C       0.15281   0.39880   0.58297 
C          C       0.60120   0.75401   0.58297 
C          C       0.24599   0.84719   0.58297 
C          C       0.09408   0.34889   0.58686 
C          C       0.65111   0.74518   0.58686 
C          C       0.25482   0.90592   0.58686 
C          C       0.04734   0.34953   0.50118 
C          C       0.65047   0.69781   0.50118 
C          C       0.30219   0.95266   0.50118 
C          C       0.06059   0.40115   0.41106 
C          C       0.59885   0.65944   0.41106 
C          C       0.34055   0.93941   0.41106 
C          C       0.12004   0.45071   0.40618 
C          C       0.54929   0.66933   0.40618 
C          C       0.33067   0.87996   0.40618 
H          H       0.18473   0.39685   0.64849 
H          H       0.60315   0.78788   0.64849 
H          H       0.21212   0.81527   0.64849 
H          H       0.08532   0.31204   0.65398 
H          H       0.68796   0.77328   0.65398 
H          H       0.22672   0.91468   0.65398 
H          H       0.02744   0.40273   0.34761 
H          H       0.59727   0.62471   0.34761 
H          H       0.37529   0.97256   0.34761 
H          H       0.12829   0.48724   0.33803 
H          H       0.51276   0.64106   0.33803 
H          H       0.35894   0.87170   0.33803 
N          N       0.33944   0.31524   0.52697 
N          N       0.68476   0.02420   0.52697 
N          N       0.97580   0.66056   0.52697 
C          C       0.29904   0.25582   0.54686 
C          C       0.74418   0.04322   0.54686 
C          C       0.95678   0.70095   0.54686 
H          H       0.25529   0.24356   0.57381 
H          H       0.75644   0.01173   0.57381 
H          H       0.98827   0.74471   0.57381 
N          N       0.99290   0.29890   0.51326 
N          N       0.70110   0.69400   0.51326 
N          N       0.30600   0.00710   0.51326 
C          C       0.93760   0.28227   0.45430 
C          C       0.71773   0.65533   0.45430 
C          C       0.34467   0.06240   0.45430 
H          H       0.93135   0.31185   0.38647 
H          H       0.68815   0.61950   0.38647 
H          H       0.38050   0.06865   0.38647 
