data_crystal
 
_cell_length_a    25.80330
_cell_length_b    6.74380
_cell_length_c    25.88230
_cell_angle_alpha 90.00000
_cell_angle_beta  100.41000
_cell_angle_gamma 90.00000
 
_symmetry_space_group_name_Hall 'P 1'
_symmetry_space_group_name_H-M  'P 1'
 
loop_
_symmetry_equiv_pos_as_xyz
 'x,y,z' 
 
loop_
_atom_site_label
_atom_site_type_symbol
_atom_site_fract_x
_atom_site_fract_y
_atom_site_fract_z
_atom_site_charge
C          C       0.53229   0.50000   0.54962   0.0000000000
C          C       0.04640   0.50000   0.03653   0.0000000000
C          C       0.46771   0.50000   0.45038   0.0000000000
C          C       0.95360   0.50000   0.96347   0.0000000000
C          C       0.52255   0.50000   0.45478   0.0000000000
C          C       0.95076   0.50000   0.01674   0.0000000000
C          C       0.47745   0.50000   0.54522   0.0000000000
C          C       0.04924   0.50000   0.98326   0.0000000000
C          C       0.38673   0.50000   0.49002   0.0000000000
C          C       0.99750   0.50000   0.88699   0.0000000000
C          C       0.61327   0.50000   0.50998   0.0000000000
C          C       0.00250   0.50000   0.11301   0.0000000000
C          C       0.55530   0.50000   0.50447   0.0000000000
C          C       0.99826   0.50000   0.05478   0.0000000000
C          C       0.44470   0.50000   0.49553   0.0000000000
C          C       0.00174   0.50000   0.94522   0.0000000000
N          N       0.63574   0.50000   0.46897   0.0000000000
N          N       0.96211   0.50000   0.13628   0.0000000000
N          N       0.36426   0.50000   0.53103   0.0000000000
N          N       0.03789   0.50000   0.86372   0.0000000000
N          N       0.05728   0.50000   0.44157   0.0000000000
N          N       0.94272   0.50000   0.55844   0.0000000000
C          C       0.04125   0.50000   0.38938   0.0000000000
C          C       0.89025   0.50000   0.54342   0.0000000000
C          C       0.95875   0.50000   0.61062   0.0000000000
C          C       0.10975   0.50000   0.45658   0.0000000000
C          C       0.08710   0.50000   0.36823   0.0000000000
C          C       0.87002   0.50000   0.58970   0.0000000000
C          C       0.91290   0.50000   0.63177   0.0000000000
C          C       0.12998   0.50000   0.41030   0.0000000000
H          H       0.08943   0.50000   0.32694   0.0000000000
H          H       0.82880   0.50000   0.59285   0.0000000000
H          H       0.91057   0.50000   0.67306   0.0000000000
H          H       0.17120   0.50000   0.40715   0.0000000000
N          N       0.93200   0.50000   0.43328   0.0000000000
N          N       0.06800   0.50000   0.56672   0.0000000000
C          C       0.93736   0.50000   0.37983   0.0000000000
C          C       0.87868   0.50000   0.43969   0.0000000000
C          C       0.06264   0.50000   0.62017   0.0000000000
C          C       0.12132   0.50000   0.56031   0.0000000000
C          C       0.88250   0.50000   0.35104   0.0000000000
C          C       0.84885   0.50000   0.38538   0.0000000000
C          C       0.11750   0.50000   0.64896   0.0000000000
C          C       0.15115   0.50000   0.61462   0.0000000000
H          H       0.87056   0.50000   0.30877   0.0000000000
H          H       0.80637   0.50000   0.37426   0.0000000000
H          H       0.12944   0.50000   0.69123   0.0000000000
H          H       0.19363   0.50000   0.62574   0.0000000000
C          C       0.98374   0.50000   0.35953   0.0000000000
C          C       0.85929   0.50000   0.48648   0.0000000000
C          C       0.01626   0.50000   0.64047   0.0000000000
C          C       0.14071   0.50000   0.51352   0.0000000000
C          C       0.97792   0.50000   0.30184   0.0000000000
C          C       0.80153   0.50000   0.48178   0.0000000000
C          C       0.02208   0.50000   0.69816   0.0000000000
C          C       0.19847   0.50000   0.51822   0.0000000000
C          C       0.97528   0.32018   0.27431   0.0000000000
C          C       0.77397   0.67981   0.47967   0.0000000000
C          C       0.02472   0.32018   0.72569   0.0000000000
C          C       0.22603   0.67981   0.52033   0.0000000000
C          C       0.02472   0.67982   0.72569   0.0000000000
C          C       0.22603   0.32018   0.52033   0.0000000000
C          C       0.97528   0.67982   0.27431   0.0000000000
C          C       0.77397   0.32018   0.47967   0.0000000000
H          H       0.97723   0.18086   0.29535   0.0000000000
H          H       0.79503   0.81912   0.48124   0.0000000000
H          H       0.02277   0.18086   0.70465   0.0000000000
H          H       0.20497   0.81912   0.51876   0.0000000000
H          H       0.02277   0.81914   0.70465   0.0000000000
H          H       0.20497   0.18088   0.51876   0.0000000000
H          H       0.97723   0.81914   0.29535   0.0000000000
H          H       0.79503   0.18088   0.48124   0.0000000000
C          C       0.96999   0.32051   0.21954   0.0000000000
C          C       0.71912   0.67949   0.47539   0.0000000000
C          C       0.03001   0.32051   0.78046   0.0000000000
C          C       0.28088   0.67949   0.52461   0.0000000000
C          C       0.03001   0.67948   0.78046   0.0000000000
C          C       0.28088   0.32051   0.52461   0.0000000000
C          C       0.96999   0.67948   0.21954   0.0000000000
C          C       0.71912   0.32051   0.47539   0.0000000000
H          H       0.96773   0.18233   0.19808   0.0000000000
H          H       0.69767   0.81775   0.47355   0.0000000000
H          H       0.03227   0.18233   0.80192   0.0000000000
H          H       0.30233   0.81775   0.52645   0.0000000000
H          H       0.03227   0.81767   0.80192   0.0000000000
H          H       0.30233   0.18225   0.52645   0.0000000000
H          H       0.96773   0.81767   0.19808   0.0000000000
H          H       0.69767   0.18225   0.47355   0.0000000000
C          C       0.96759   0.50000   0.19216   0.0000000000
C          C       0.69169   0.50000   0.47347   0.0000000000
C          C       0.03241   0.50000   0.80784   0.0000000000
C          C       0.30831   0.50000   0.52653   0.0000000000
H          H       0.55676   0.50000   0.58832   0.0000000000
H          H       0.53948   0.50000   0.41940   0.0000000000
H          H       0.36283   0.50000   0.45093   0.0000000000
H          H       0.08343   0.50000   0.06399   0.0000000000
O          O       0.89969   0.50000   0.02775   0.0000000000
H          H       0.95833   0.50000   0.86298   0.0000000000
H          H       0.89638   0.50000   0.06582   0.0000000000
H          H       0.96139   0.50000   0.46212   0.0000000000
H          H       0.44324   0.50000   0.41168   0.0000000000
H          H       0.46052   0.50000   0.58060   0.0000000000
H          H       0.63717   0.50000   0.54907   0.0000000000
H          H       0.91657   0.50000   0.93602   0.0000000000
O          O       0.10031   0.50000   0.97226   0.0000000000
H          H       0.04167   0.50000   0.13702   0.0000000000
H          H       0.10362   0.50000   0.93418   0.0000000000
H          H       0.03861   0.50000   0.53788   0.0000000000
