data_crystal
 
_cell_length_a    61.04190
_cell_length_b    3.53350
_cell_length_c    59.13050
_cell_angle_alpha 90.00000
_cell_angle_beta  61.06620
_cell_angle_gamma 90.00000
 
_symmetry_space_group_name_Hall 'P 1'
_symmetry_space_group_name_H-M  'P 1'
 
loop_
_symmetry_equiv_pos_as_xyz
 'x,y,z' 
 
loop_
_atom_site_label
_atom_site_type_symbol
_atom_site_fract_x
_atom_site_fract_y
_atom_site_fract_z
_atom_site_charge
C          C       0.34093   0.50000   0.34985   0.0000000000
C          C       0.31432   0.50000   0.36298   0.0000000000
C          C       0.29894   0.50000   0.35095   0.0000000000
C          C       0.31247   0.50000   0.32346   0.0000000000
C          C       0.33892   0.50000   0.30803   0.0000000000
C          C       0.35184   0.50000   0.32254   0.0000000000
H          H       0.30537   0.50000   0.38495   0.0000000000
H          H       0.30197   0.50000   0.31192   0.0000000000
H          H       0.37317   0.50000   0.31218   0.0000000000
C          C       0.35177   0.50000   0.28005   0.0000000000
C          C       0.37845   0.50000   0.26482   0.0000000000
C          C       0.39117   0.50000   0.23765   0.0000000000
C          C       0.37805   0.50000   0.22366   0.0000000000
C          C       0.35170   0.50000   0.23782   0.0000000000
C          C       0.33910   0.50000   0.26508   0.0000000000
H          H       0.38946   0.50000   0.27582   0.0000000000
H          H       0.41251   0.50000   0.22663   0.0000000000
H          H       0.34026   0.50000   0.22725   0.0000000000
H          H       0.31777   0.50000   0.27624   0.0000000000
C          C       0.27186   0.50000   0.36525   0.0000000000
C          C       0.25632   0.50000   0.35331   0.0000000000
C          C       0.22997   0.50000   0.36741   0.0000000000
C          C       0.21732   0.50000   0.39450   0.0000000000
C          C       0.23190   0.50000   0.40707   0.0000000000
C          C       0.25819   0.50000   0.39282   0.0000000000
H          H       0.26625   0.50000   0.33128   0.0000000000
H          H       0.21858   0.50000   0.35679   0.0000000000
H          H       0.22240   0.50000   0.42907   0.0000000000
H          H       0.26971   0.50000   0.40329   0.0000000000
C          C       0.35593   0.50000   0.36275   0.0000000000
C          C       0.38270   0.50000   0.34916   0.0000000000
C          C       0.39744   0.50000   0.36147   0.0000000000
C          C       0.38628   0.50000   0.38860   0.0000000000
C          C       0.36003   0.50000   0.40273   0.0000000000
C          C       0.34539   0.50000   0.39020   0.0000000000
H          H       0.39203   0.50000   0.32716   0.0000000000
H          H       0.41872   0.50000   0.34947   0.0000000000
H          H       0.35015   0.50000   0.42475   0.0000000000
H          H       0.32409   0.50000   0.40208   0.0000000000
C          C       0.14919   0.50000   0.44180   0.0000000000
C          C       0.13290   0.50000   0.46868   0.0000000000
C          C       0.10680   0.50000   0.47873   0.0000000000
C          C       0.09516   0.50000   0.46283   0.0000000000
C          C       0.11221   0.50000   0.43573   0.0000000000
C          C       0.13838   0.50000   0.42548   0.0000000000
H          H       0.14116   0.50000   0.48233   0.0000000000
H          H       0.09389   0.50000   0.50052   0.0000000000
H          H       0.10479   0.50000   0.42136   0.0000000000
H          H       0.15116   0.50000   0.40366   0.0000000000
N          N       0.06839   0.50000   0.47340   0.0000000000
C          C       0.05661   0.50000   0.45774   0.0000000000
C          C       0.03045   0.50000   0.46807   0.0000000000
C          C       0.01336   0.50000   0.49498   0.0000000000
C          C       0.02511   0.50000   0.51073   0.0000000000
C          C       0.05131   0.50000   0.50039   0.0000000000
H          H       0.06934   0.50000   0.43591   0.0000000000
H          H       0.02198   0.50000   0.45460   0.0000000000
H          H       0.01323   0.50000   0.53268   0.0000000000
H          H       0.05978   0.50000   0.51386   0.0000000000
C          C       0.17527   0.50000   0.43213   0.0000000000
N          N       0.19195   0.50000   0.40658   0.0000000000
H          H       0.18215   0.50000   0.44694   0.0000000000
C          C       0.56545   0.50000   0.58982   0.0000000000
C          C       0.53920   0.50000   0.60040   0.0000000000
C          C       0.52805   0.50000   0.58443   0.0000000000
C          C       0.54211   0.50000   0.55690   0.0000000000
C          C       0.56859   0.50000   0.54680   0.0000000000
C          C       0.57998   0.50000   0.56264   0.0000000000
H          H       0.52698   0.50000   0.62231   0.0000000000
H          H       0.50679   0.50000   0.59339   0.0000000000
H          H       0.58157   0.50000   0.52502   0.0000000000
H          H       0.60125   0.50000   0.55351   0.0000000000
N          N       0.53039   0.50000   0.54079   0.0000000000
C          C       0.54406   0.50000   0.51333   0.0000000000
C          C       0.53248   0.50000   0.49766   0.0000000000
C          C       0.50603   0.50000   0.50789   0.0000000000
C          C       0.49242   0.50000   0.53532   0.0000000000
C          C       0.50399   0.50000   0.55092   0.0000000000
H          H       0.56535   0.50000   0.50404   0.0000000000
H          H       0.54442   0.50000   0.47572   0.0000000000
H          H       0.47108   0.50000   0.54570   0.0000000000
H          H       0.49208   0.50000   0.57287   0.0000000000
C          C       0.57596   0.50000   0.60645   0.0000000000
N          N       0.60094   0.50000   0.59791   0.0000000000
H          H       0.56228   0.50000   0.62808   0.0000000000
C          C       0.40270   0.50000   0.15228   0.0000000000
C          C       0.39453   0.50000   0.13368   0.0000000000
C          C       0.41174   0.50000   0.10708   0.0000000000
C          C       0.43818   0.50000   0.09710   0.0000000000
C          C       0.44586   0.50000   0.11638   0.0000000000
C          C       0.42876   0.50000   0.14307   0.0000000000
H          H       0.37357   0.50000   0.14054   0.0000000000
H          H       0.40472   0.50000   0.09238   0.0000000000
H          H       0.46663   0.50000   0.11044   0.0000000000
H          H       0.43592   0.50000   0.15766   0.0000000000
N          N       0.45554   0.50000   0.06977   0.0000000000
C          C       0.48193   0.50000   0.05958   0.0000000000
C          C       0.49897   0.50000   0.03289   0.0000000000
C          C       0.49133   0.50000   0.01365   0.0000000000
C          C       0.46495   0.50000   0.02379   0.0000000000
C          C       0.44794   0.50000   0.05048   0.0000000000
H          H       0.48913   0.50000   0.07413   0.0000000000
H          H       0.51997   0.50000   0.02583   0.0000000000
H          H       0.45670   0.50000   0.01013   0.0000000000
H          H       0.42694   0.50000   0.05755   0.0000000000
C          C       0.38511   0.50000   0.17889   0.0000000000
N          N       0.39198   0.50000   0.19750   0.0000000000
H          H       0.36444   0.50000   0.18446   0.0000000000
Cl         Cl      0.70645   0.32594   0.41016   0.0000000000
Cl         Cl      0.52654   0.61680   0.12005   0.0000000000
Cl         Cl      0.09658   0.48744   0.35353   0.0000000000
C          C       0.65907   0.50000   0.65015   0.0000000000
C          C       0.68568   0.50000   0.63702   0.0000000000
C          C       0.70106   0.50000   0.64905   0.0000000000
C          C       0.68753   0.50000   0.67654   0.0000000000
C          C       0.66108   0.50000   0.69197   0.0000000000
C          C       0.64816   0.50000   0.67746   0.0000000000
H          H       0.69463   0.50000   0.61505   0.0000000000
H          H       0.69803   0.50000   0.68808   0.0000000000
H          H       0.62683   0.50000   0.68782   0.0000000000
C          C       0.64823   0.50000   0.71995   0.0000000000
C          C       0.62155   0.50000   0.73518   0.0000000000
C          C       0.60883   0.50000   0.76235   0.0000000000
C          C       0.62195   0.50000   0.77634   0.0000000000
C          C       0.64830   0.50000   0.76218   0.0000000000
C          C       0.66090   0.50000   0.73492   0.0000000000
H          H       0.61054   0.50000   0.72418   0.0000000000
H          H       0.58749   0.50000   0.77337   0.0000000000
H          H       0.65974   0.50000   0.77275   0.0000000000
H          H       0.68223   0.50000   0.72376   0.0000000000
C          C       0.72814   0.50000   0.63475   0.0000000000
C          C       0.74368   0.50000   0.64669   0.0000000000
C          C       0.77003   0.50000   0.63259   0.0000000000
C          C       0.78268   0.50000   0.60550   0.0000000000
C          C       0.76810   0.50000   0.59293   0.0000000000
C          C       0.74181   0.50000   0.60718   0.0000000000
H          H       0.73375   0.50000   0.66872   0.0000000000
H          H       0.78142   0.50000   0.64321   0.0000000000
H          H       0.77760   0.50000   0.57093   0.0000000000
H          H       0.73029   0.50000   0.59671   0.0000000000
C          C       0.64407   0.50000   0.63725   0.0000000000
C          C       0.61730   0.50000   0.65084   0.0000000000
C          C       0.60256   0.50000   0.63853   0.0000000000
C          C       0.61372   0.50000   0.61140   0.0000000000
C          C       0.63997   0.50000   0.59727   0.0000000000
C          C       0.65461   0.50000   0.60980   0.0000000000
H          H       0.60797   0.50000   0.67284   0.0000000000
H          H       0.58128   0.50000   0.65053   0.0000000000
H          H       0.64985   0.50000   0.57525   0.0000000000
H          H       0.67591   0.50000   0.59792   0.0000000000
C          C       0.85081   0.50000   0.55820   0.0000000000
C          C       0.86710   0.50000   0.53132   0.0000000000
C          C       0.89320   0.50000   0.52127   0.0000000000
C          C       0.90484   0.50000   0.53717   0.0000000000
C          C       0.88779   0.50000   0.56427   0.0000000000
C          C       0.86162   0.50000   0.57452   0.0000000000
H          H       0.85884   0.50000   0.51767   0.0000000000
H          H       0.90611   0.50000   0.49948   0.0000000000
H          H       0.89521   0.50000   0.57864   0.0000000000
H          H       0.84884   0.50000   0.59634   0.0000000000
N          N       0.93161   0.50000   0.52660   0.0000000000
C          C       0.94339   0.50000   0.54226   0.0000000000
C          C       0.96955   0.50000   0.53193   0.0000000000
C          C       0.98664   0.50000   0.50502   0.0000000000
C          C       0.97489   0.50000   0.48927   0.0000000000
C          C       0.94869   0.50000   0.49961   0.0000000000
H          H       0.93066   0.50000   0.56409   0.0000000000
H          H       0.97802   0.50000   0.54540   0.0000000000
H          H       0.98677   0.50000   0.46732   0.0000000000
H          H       0.94022   0.50000   0.48614   0.0000000000
C          C       0.82473   0.50000   0.56787   0.0000000000
N          N       0.80805   0.50000   0.59342   0.0000000000
H          H       0.81785   0.50000   0.55306   0.0000000000
C          C       0.43455   0.50000   0.41018   0.0000000000
C          C       0.46080   0.50000   0.39960   0.0000000000
C          C       0.47195   0.50000   0.41557   0.0000000000
C          C       0.45789   0.50000   0.44310   0.0000000000
C          C       0.43141   0.50000   0.45320   0.0000000000
C          C       0.42003   0.50000   0.43736   0.0000000000
H          H       0.47302   0.50000   0.37769   0.0000000000
H          H       0.49321   0.50000   0.40661   0.0000000000
H          H       0.41843   0.50000   0.47498   0.0000000000
H          H       0.39875   0.50000   0.44649   0.0000000000
N          N       0.46961   0.50000   0.45921   0.0000000000
C          C       0.45594   0.50000   0.48667   0.0000000000
C          C       0.46752   0.50000   0.50234   0.0000000000
C          C       0.49397   0.50000   0.49211   0.0000000000
C          C       0.50758   0.50000   0.46468   0.0000000000
C          C       0.49601   0.50000   0.44908   0.0000000000
H          H       0.43465   0.50000   0.49596   0.0000000000
H          H       0.45558   0.50000   0.52428   0.0000000000
H          H       0.52892   0.50000   0.45430   0.0000000000
H          H       0.50792   0.50000   0.42713   0.0000000000
C          C       0.42404   0.50000   0.39355   0.0000000000
N          N       0.39906   0.50000   0.40209   0.0000000000
H          H       0.43772   0.50000   0.37192   0.0000000000
C          C       0.59730   0.50000   0.84772   0.0000000000
C          C       0.60547   0.50000   0.86632   0.0000000000
C          C       0.58826   0.50000   0.89292   0.0000000000
C          C       0.56182   0.50000   0.90290   0.0000000000
C          C       0.55414   0.50000   0.88362   0.0000000000
C          C       0.57124   0.50000   0.85693   0.0000000000
H          H       0.62643   0.50000   0.85946   0.0000000000
H          H       0.59528   0.50000   0.90762   0.0000000000
H          H       0.53337   0.50000   0.88956   0.0000000000
H          H       0.56408   0.50000   0.84234   0.0000000000
N          N       0.54446   0.50000   0.93023   0.0000000000
C          C       0.51807   0.50000   0.94042   0.0000000000
C          C       0.50103   0.50000   0.96711   0.0000000000
C          C       0.50867   0.50000   0.98635   0.0000000000
C          C       0.53505   0.50000   0.97621   0.0000000000
C          C       0.55206   0.50000   0.94952   0.0000000000
H          H       0.51087   0.50000   0.92587   0.0000000000
H          H       0.48003   0.50000   0.97417   0.0000000000
H          H       0.54330   0.50000   0.98987   0.0000000000
H          H       0.57306   0.50000   0.94245   0.0000000000
C          C       0.61489   0.50000   0.82111   0.0000000000
N          N       0.60802   0.50000   0.80250   0.0000000000
H          H       0.63557   0.50000   0.81554   0.0000000000
Cl         Cl      0.29355   0.67406   0.58984   0.0000000000
Cl         Cl      0.47346   0.38321   0.87994   0.0000000000
Cl         Cl      0.90342   0.51256   0.64647   0.0000000000
