data_crystal
 
_cell_length_a    22.85000
_cell_length_b    22.85000
_cell_length_c    3.34000
_cell_angle_alpha 90.00000
_cell_angle_beta  90.00000
_cell_angle_gamma 90.00000
 
_symmetry_space_group_name_Hall 'P 1'
_symmetry_space_group_name_H-M  'P 1'
 
loop_
_symmetry_equiv_pos_as_xyz
 'x,y,z' 
 
loop_
_atom_site_label
_atom_site_type_symbol
_atom_site_fract_x
_atom_site_fract_y
_atom_site_fract_z
_atom_site_charge
C          C       0.44785   0.03038   0.50000   0.0000000000
C          C       0.53088   0.21733   0.50000   0.0000000000
C          C       0.43790   0.26903   0.50000   0.0000000000
C          C       0.47061   0.32026   0.50000   0.0000000000
C          C       0.44691   0.37754   0.50000   0.0000000000
O          O       0.44691   0.16191   0.50000   0.0000000000
H          H       0.40630   0.05326   0.50000   0.0000000000
H          H       0.39053   0.26933   0.50000   0.0000000000
C          C       0.96964   0.44787   0.50000   0.0000000000
C          C       0.78269   0.53090   0.50000   0.0000000000
C          C       0.73099   0.43792   0.50000   0.0000000000
C          C       0.67976   0.47063   0.50000   0.0000000000
C          C       0.62248   0.44693   0.50000   0.0000000000
O          O       0.83811   0.44693   0.50000   0.0000000000
H          H       0.94677   0.40632   0.50000   0.0000000000
H          H       0.73069   0.39056   0.50000   0.0000000000
N          N       0.39484   0.39486   0.50000   0.0000000000
C          C       0.55215   0.96966   0.50000   0.0000000000
C          C       0.46912   0.78271   0.50000   0.0000000000
C          C       0.56210   0.73101   0.50000   0.0000000000
C          C       0.52939   0.67978   0.50000   0.0000000000
C          C       0.55309   0.62250   0.50000   0.0000000000
O          O       0.55309   0.83813   0.50000   0.0000000000
H          H       0.59370   0.94679   0.50000   0.0000000000
H          H       0.60947   0.73071   0.50000   0.0000000000
C          C       0.03036   0.55217   0.50000   0.0000000000
C          C       0.21731   0.46914   0.50000   0.0000000000
C          C       0.26901   0.56212   0.50000   0.0000000000
C          C       0.32024   0.52941   0.50000   0.0000000000
C          C       0.37752   0.55311   0.50000   0.0000000000
O          O       0.16189   0.55311   0.50000   0.0000000000
H          H       0.05323   0.59372   0.50000   0.0000000000
H          H       0.26931   0.60949   0.50000   0.0000000000
N          N       0.60516   0.60518   0.50000   0.0000000000
C          C       0.55215   0.03038   0.50000   0.0000000000
C          C       0.46912   0.21733   0.50000   0.0000000000
C          C       0.56210   0.26903   0.50000   0.0000000000
C          C       0.52939   0.32026   0.50000   0.0000000000
C          C       0.55309   0.37754   0.50000   0.0000000000
O          O       0.55309   0.16191   0.50000   0.0000000000
H          H       0.59370   0.05326   0.50000   0.0000000000
H          H       0.60947   0.26933   0.50000   0.0000000000
C          C       0.03036   0.44787   0.50000   0.0000000000
C          C       0.21731   0.53090   0.50000   0.0000000000
C          C       0.26901   0.43792   0.50000   0.0000000000
C          C       0.32024   0.47063   0.50000   0.0000000000
C          C       0.37752   0.44693   0.50000   0.0000000000
O          O       0.16189   0.44693   0.50000   0.0000000000
H          H       0.05323   0.40632   0.50000   0.0000000000
H          H       0.26931   0.39056   0.50000   0.0000000000
N          N       0.60516   0.39486   0.50000   0.0000000000
C          C       0.44785   0.96966   0.50000   0.0000000000
C          C       0.53088   0.78271   0.50000   0.0000000000
C          C       0.43790   0.73101   0.50000   0.0000000000
C          C       0.47061   0.67978   0.50000   0.0000000000
C          C       0.44691   0.62250   0.50000   0.0000000000
O          O       0.44691   0.83813   0.50000   0.0000000000
H          H       0.40630   0.94679   0.50000   0.0000000000
H          H       0.39053   0.73071   0.50000   0.0000000000
C          C       0.96964   0.55217   0.50000   0.0000000000
C          C       0.78269   0.46914   0.50000   0.0000000000
C          C       0.73099   0.56212   0.50000   0.0000000000
C          C       0.67976   0.52941   0.50000   0.0000000000
C          C       0.62248   0.55311   0.50000   0.0000000000
O          O       0.83811   0.55311   0.50000   0.0000000000
H          H       0.94677   0.59372   0.50000   0.0000000000
H          H       0.73069   0.60949   0.50000   0.0000000000
N          N       0.39484   0.60518   0.50000   0.0000000000
C          C       0.50000   0.06044   0.50000   0.0000000000
B          B       0.50000   0.12752   0.50000   0.0000000000
N          N       0.50000   0.41345   0.50000   0.0000000000
C          C       0.50000   0.93960   0.50000   0.0000000000
B          B       0.50000   0.87252   0.50000   0.0000000000
N          N       0.50000   0.58659   0.50000   0.0000000000
C          C       0.93958   0.50002   0.50000   0.0000000000
B          B       0.87250   0.50002   0.50000   0.0000000000
N          N       0.58657   0.50002   0.50000   0.0000000000
H          H       0.45708   0.50002   0.50000   0.0000000000
C          C       0.06042   0.50002   0.50000   0.0000000000
B          B       0.12750   0.50002   0.50000   0.0000000000
N          N       0.41343   0.50002   0.50000   0.0000000000
H          H       0.54292   0.50002   0.50000   0.0000000000
