data_Pc-PBBA-COF-ff
_audit_creation_date              0000-00-00
_audit_creation_method            'LanYouShi'
_symmetry_space_group_name_H-M    'P1'
_cell_length_a                    22.8500004
_cell_length_b                    22.8500004
_cell_length_c                    3.3399999
_cell_angle_alpha                 90.0000000
_cell_angle_beta                  90.0000000
_cell_angle_gamma                 90.0000000
loop_
_atom_site_label
_atom_site_type_symbol
_atom_site_fract_x
_atom_site_fract_y
_atom_site_fract_z
_atom_site_U_iso_or_equiv
_atom_site_adp_type
_atom_site_occupancy
        C1          C  0.4478502  0.0303830  0.5000000    0.00000       Uiso       1.00
        C2          C  0.5308802  0.2173330  0.5000000    0.00000       Uiso       1.00
        C3          C  0.4379002  0.2690330  0.5000000    0.00000       Uiso       1.00
        C4          C  0.4706102  0.3202629  0.5000000    0.00000       Uiso       1.00
        C5          C  0.4469102  0.3775430  0.5000000    0.00000       Uiso       1.00
        O1          O  0.4469102  0.1619130  0.5000000    0.00000       Uiso       1.00
        H1          H  0.4062989  0.0532576  0.5000000    0.00000       Uiso       1.00
        H2          H  0.3905338  0.2693346  0.5000000    0.00000       Uiso       1.00
        C6          C  0.9696403  0.4478730  0.5000000    0.00000       Uiso       1.00
        C7          C  0.7826902  0.5309029  0.5000000    0.00000       Uiso       1.00
        C8          C  0.7309902  0.4379230  0.5000000    0.00000       Uiso       1.00
        C9          C  0.6797603  0.4706330  0.5000000    0.00000       Uiso       1.00
       C10          C  0.6224803  0.4469330  0.5000000    0.00000       Uiso       1.00
        O2          O  0.8381103  0.4469330  0.5000000    0.00000       Uiso       1.00
        H3          H  0.9467656  0.4063218  0.5000000    0.00000       Uiso       1.00
        H4          H  0.7306882  0.3905567  0.5000000    0.00000       Uiso       1.00
        N1          N  0.3948402  0.3948630  0.5000000    0.00000       Uiso       1.00
       C11          C  0.5521502  0.9696630  0.5000000    0.00000       Uiso       1.00
       C12          C  0.4691203  0.7827129  0.5000000    0.00000       Uiso       1.00
       C13          C  0.5621002  0.7310129  0.5000000    0.00000       Uiso       1.00
       C14          C  0.5293902  0.6797830  0.5000000    0.00000       Uiso       1.00
       C15          C  0.5530902  0.6225029  0.5000000    0.00000       Uiso       1.00
        O3          O  0.5530902  0.8381330  0.5000000    0.00000       Uiso       1.00
        H5          H  0.5937015  0.9467883  0.5000000    0.00000       Uiso       1.00
        H6          H  0.6094666  0.7307113  0.5000000    0.00000       Uiso       1.00
       C16          C  0.0303602  0.5521730  0.5000000    0.00000       Uiso       1.00
       C17          C  0.2173102  0.4691430  0.5000000    0.00000       Uiso       1.00
       C18          C  0.2690102  0.5621229  0.5000000    0.00000       Uiso       1.00
       C19          C  0.3202402  0.5294130  0.5000000    0.00000       Uiso       1.00
       C20          C  0.3775202  0.5531130  0.5000000    0.00000       Uiso       1.00
        O4          O  0.1618902  0.5531130  0.5000000    0.00000       Uiso       1.00
        H7          H  0.0532349  0.5937241  0.5000000    0.00000       Uiso       1.00
        H8          H  0.2693122  0.6094892  0.5000000    0.00000       Uiso       1.00
        N2          N  0.6051602  0.6051829  0.5000000    0.00000       Uiso       1.00
       C21          C  0.5521502  0.0303830  0.5000000    0.00000       Uiso       1.00
       C22          C  0.4691203  0.2173330  0.5000000    0.00000       Uiso       1.00
       C23          C  0.5621002  0.2690330  0.5000000    0.00000       Uiso       1.00
       C24          C  0.5293902  0.3202629  0.5000000    0.00000       Uiso       1.00
       C25          C  0.5530902  0.3775430  0.5000000    0.00000       Uiso       1.00
        O5          O  0.5530902  0.1619130  0.5000000    0.00000       Uiso       1.00
        H9          H  0.5937015  0.0532576  0.5000000    0.00000       Uiso       1.00
       H10          H  0.6094666  0.2693346  0.5000000    0.00000       Uiso       1.00
       C26          C  0.0303602  0.4478730  0.5000000    0.00000       Uiso       1.00
       C27          C  0.2173102  0.5309029  0.5000000    0.00000       Uiso       1.00
       C28          C  0.2690102  0.4379230  0.5000000    0.00000       Uiso       1.00
       C29          C  0.3202402  0.4706330  0.5000000    0.00000       Uiso       1.00
       C30          C  0.3775202  0.4469330  0.5000000    0.00000       Uiso       1.00
        O6          O  0.1618902  0.4469330  0.5000000    0.00000       Uiso       1.00
       H11          H  0.0532349  0.4063218  0.5000000    0.00000       Uiso       1.00
       H12          H  0.2693122  0.3905567  0.5000000    0.00000       Uiso       1.00
        N3          N  0.6051602  0.3948630  0.5000000    0.00000       Uiso       1.00
       C31          C  0.4478502  0.9696630  0.5000000    0.00000       Uiso       1.00
       C32          C  0.5308802  0.7827129  0.5000000    0.00000       Uiso       1.00
       C33          C  0.4379002  0.7310129  0.5000000    0.00000       Uiso       1.00
       C34          C  0.4706102  0.6797830  0.5000000    0.00000       Uiso       1.00
       C35          C  0.4469102  0.6225029  0.5000000    0.00000       Uiso       1.00
        O7          O  0.4469102  0.8381330  0.5000000    0.00000       Uiso       1.00
       H13          H  0.4062989  0.9467883  0.5000000    0.00000       Uiso       1.00
       H14          H  0.3905338  0.7307113  0.5000000    0.00000       Uiso       1.00
       C36          C  0.9696403  0.5521730  0.5000000    0.00000       Uiso       1.00
       C37          C  0.7826902  0.4691430  0.5000000    0.00000       Uiso       1.00
       C38          C  0.7309902  0.5621229  0.5000000    0.00000       Uiso       1.00
       C39          C  0.6797603  0.5294130  0.5000000    0.00000       Uiso       1.00
       C40          C  0.6224803  0.5531130  0.5000000    0.00000       Uiso       1.00
        O8          O  0.8381103  0.5531130  0.5000000    0.00000       Uiso       1.00
       H15          H  0.9467656  0.5937241  0.5000000    0.00000       Uiso       1.00
       H16          H  0.7306882  0.6094892  0.5000000    0.00000       Uiso       1.00
        N4          N  0.3948402  0.6051829  0.5000000    0.00000       Uiso       1.00
       C41          C  0.5000002  0.0604430  0.5000000    0.00000       Uiso       1.00
        B1          B  0.5000002  0.1275230  0.5000000    0.00000       Uiso       1.00
        N5          N  0.5000002  0.4134530  0.5000000    0.00000       Uiso       1.00
       C42          C  0.5000002  0.9396030  0.5000000    0.00000       Uiso       1.00
        B2          B  0.5000002  0.8725229  0.5000000    0.00000       Uiso       1.00
        N6          N  0.5000002  0.5865930  0.5000000    0.00000       Uiso       1.00
       C43          C  0.9395802  0.5000229  0.5000000    0.00000       Uiso       1.00
        B3          B  0.8725002  0.5000229  0.5000000    0.00000       Uiso       1.00
        N7          N  0.5865702  0.5000229  0.5000000    0.00000       Uiso       1.00
       H17          H  0.4570824  0.5000229  0.5000000    0.00000       Uiso       1.00
       C44          C  0.0604202  0.5000229  0.5000000    0.00000       Uiso       1.00
        B4          B  0.1275003  0.5000229  0.5000000    0.00000       Uiso       1.00
        N8          N  0.4134302  0.5000229  0.5000000    0.00000       Uiso       1.00
       H18          H  0.5429181  0.5000229  0.5000000    0.00000       Uiso       1.00
