data_crystal
 
_cell_length_a    15.49750
_cell_length_b    15.49750
_cell_length_c    3.60000
_cell_angle_alpha 90.00000
_cell_angle_beta  90.00000
_cell_angle_gamma 120.00000
 
_symmetry_space_group_name_Hall 'P 1'
_symmetry_space_group_name_H-M  'P 1'
 
loop_
_symmetry_equiv_pos_as_xyz
 'x,y,z' 
 
loop_
_atom_site_label
_atom_site_type_symbol
_atom_site_fract_x
_atom_site_fract_y
_atom_site_fract_z
_atom_site_charge
N          N       0.54534   0.53979   1.38889   0.0000000000
N          N       0.45466   0.46021   1.38889   0.0000000000
C          C       0.63229   0.53781   1.38889   0.0000000000
C          C       0.36771   0.46219   1.38889   0.0000000000
H          H       0.63493   0.47305   1.38889   0.0000000000
H          H       0.36507   0.52695   1.38889   0.0000000000
N          N       0.96021   0.50555   1.38889   0.0000000000
N          N       0.03979   0.49445   1.38889   0.0000000000
C          C       0.96219   0.59448   1.38889   0.0000000000
C          C       0.03781   0.40552   1.38889   0.0000000000
H          H       0.02695   0.66188   1.38889   0.0000000000
H          H       0.97305   0.33812   1.38889   0.0000000000
N          N       0.99445   0.95466   1.38889   0.0000000000
N          N       0.00555   0.04534   1.38889   0.0000000000
C          C       0.90552   0.86771   1.38889   0.0000000000
C          C       0.09448   0.13229   1.38889   0.0000000000
H          H       0.83812   0.86507   1.38889   0.0000000000
H          H       0.16188   0.13493   1.38889   0.0000000000
C          C       0.79942   0.56427   1.38889   0.0000000000
C          C       0.72852   0.59662   1.38889   0.0000000000
O          O       0.77302   0.48015   1.38889   0.0000000000
C          C       0.76485   0.70058   1.38889   0.0000000000
C          C       0.86809   0.77148   1.38889   0.0000000000
O          O       0.70713   0.72698   1.38889   0.0000000000
C          C       0.93573   0.73515   1.38889   0.0000000000
C          C       0.90339   0.63191   1.38889   0.0000000000
O          O       0.01985   0.79287   1.38889   0.0000000000
C          C       0.20058   0.43573   1.38889   0.0000000000
C          C       0.27148   0.40339   1.38889   0.0000000000
O          O       0.22698   0.51985   1.38889   0.0000000000
C          C       0.23515   0.29942   1.38889   0.0000000000
C          C       0.13191   0.22852   1.38889   0.0000000000
O          O       0.29287   0.27302   1.38889   0.0000000000
C          C       0.06427   0.26485   1.38889   0.0000000000
C          C       0.09661   0.36809   1.38889   0.0000000000
O          O       0.98015   0.20713   1.38889   0.0000000000
