data_crystal

_cell_length_a    42.09630
_cell_length_b    42.09630
_cell_length_c    13.32520
_cell_angle_alpha 90.00000
_cell_angle_beta  90.00000
_cell_angle_gamma 90.00000

_space_group_name_Hall 'P 1'
_space_group_name_H-M_alt  'P 1'

loop_
_symmetry_equiv_pos_as_xyz
'x,y,z' 

loop_
_atom_site_label
_atom_site_type_symbol
_atom_site_fract_x
_atom_site_fract_y
_atom_site_fract_z
C          C       0.09469   0.59425  -0.09143 
H          H       0.08631   0.58584  -0.15833 
C          C       0.11827   0.61792  -0.09135 
H          H       0.12673   0.62642  -0.15798 
C          C       0.90531   0.40575  -0.09143 
H          H       0.91368   0.41416  -0.15833 
C          C       0.88173   0.38208  -0.09135 
H          H       0.87327   0.37358  -0.15798 
C          C       0.40575   0.09469  -0.09143 
H          H       0.41416   0.08631  -0.15833 
C          C       0.38208   0.11827  -0.09135 
H          H       0.37358   0.12673  -0.15798 
C          C       0.59425   0.90531  -0.09143 
H          H       0.58584   0.91368  -0.15833 
C          C       0.61792   0.88173  -0.09135 
H          H       0.62642   0.87327  -0.15798 
C          C       0.90531   0.59425   0.09143 
H          H       0.91368   0.58584   0.15833 
C          C       0.88173   0.61792   0.09135 
H          H       0.87327   0.62642   0.15798 
C          C       0.09469   0.40575   0.09143 
H          H       0.08631   0.41416   0.15833 
C          C       0.11827   0.38208   0.09135 
H          H       0.12673   0.37358   0.15798 
C          C       0.59425   0.09469   0.09143 
H          H       0.58584   0.08631   0.15833 
C          C       0.61792   0.11827   0.09135 
H          H       0.62642   0.12673   0.15798 
C          C       0.40575   0.90531   0.09143 
H          H       0.41416   0.91368   0.15833 
C          C       0.38208   0.88173   0.09135 
H          H       0.37358   0.87327   0.15798 
C          C       0.90531   0.40575   0.09143 
H          H       0.91368   0.41416   0.15833 
C          C       0.88173   0.38208   0.09135 
H          H       0.87327   0.37358   0.15798 
C          C       0.09469   0.59425   0.09143 
H          H       0.08631   0.58584   0.15833 
C          C       0.11827   0.61792   0.09135 
H          H       0.12673   0.62642   0.15798 
C          C       0.59425   0.90531   0.09143 
H          H       0.58584   0.91368   0.15833 
C          C       0.61792   0.88173   0.09135 
H          H       0.62642   0.87327   0.15798 
C          C       0.40575   0.09469   0.09143 
H          H       0.41416   0.08631   0.15833 
C          C       0.38208   0.11827   0.09135 
H          H       0.37358   0.12673   0.15798 
C          C       0.09469   0.40575  -0.09143 
H          H       0.08631   0.41416  -0.15833 
C          C       0.11827   0.38208  -0.09135 
H          H       0.12673   0.37358  -0.15798 
C          C       0.90531   0.59425  -0.09143 
H          H       0.91368   0.58584  -0.15833 
C          C       0.88173   0.61792  -0.09135 
H          H       0.87327   0.62642  -0.15798 
C          C       0.40575   0.90531  -0.09143 
H          H       0.41416   0.91368  -0.15833 
C          C       0.38208   0.88173  -0.09135 
H          H       0.37358   0.87327  -0.15798 
C          C       0.59425   0.09469  -0.09143 
H          H       0.58584   0.08631  -0.15833 
C          C       0.61792   0.11827  -0.09135 
H          H       0.62642   0.12673  -0.15798 
C          C       0.71740   0.74148   0.00000 
C          C       0.70948   0.83392   0.00000 
C          C       0.74188   0.84331   0.00000 
C          C       0.76717   0.82154   0.00000 
C          C       0.68460   0.85662   0.00000 
H          H       0.74772   0.86690   0.00000 
H          H       0.78992   0.82997   0.00000 
O          O       0.69154   0.88570   0.00000 
C          C       0.23888   0.21301   0.00000 
C          C       0.33126   0.20827   0.00000 
C          C       0.33906   0.24097   0.00000 
C          C       0.31569   0.26487   0.00000 
C          C       0.35490   0.18430   0.00000 
H          H       0.36234   0.24799   0.00000 
H          H       0.32401   0.28759   0.00000 
O          O       0.38368   0.19236   0.00000 
C          C       0.06778   0.52655   0.00000 
C          C       0.09934   0.51631   0.00000 
H          H       0.11935   0.53007   0.00000 
C          C       0.02712   0.57031   0.00000 
C          C       0.01662   0.60194   0.00000 
H          H       0.03048   0.62188   0.00000 
C          C       0.05860   0.55885   0.00000 
C          C       0.08263   0.58229   0.00000 
C          C       0.13016   0.63000   0.00000 
C          C       0.72613   0.77607   0.00000 
C          C       0.70104   0.80119   0.00000 
N          N       0.65330   0.84730   0.00000 
C          C       0.28260   0.25852   0.00000 
C          C       0.29052   0.16608   0.00000 
C          C       0.25812   0.15669   0.00000 
C          C       0.23283   0.17846   0.00000 
C          C       0.31540   0.14338   0.00000 
H          H       0.25228   0.13310   0.00000 
H          H       0.21008   0.17003   0.00000 
O          O       0.30846   0.11430   0.00000 
C          C       0.76112   0.78699   0.00000 
C          C       0.66873   0.79173   0.00000 
C          C       0.66094   0.75902   0.00000 
C          C       0.68431   0.73512   0.00000 
C          C       0.64510   0.81570   0.00000 
H          H       0.63766   0.75201   0.00000 
H          H       0.67599   0.71241   0.00000 
O          O       0.61632   0.80764   0.00000 
C          C       0.93222   0.47345   0.00000 
C          C       0.90066   0.48369   0.00000 
H          H       0.88065   0.46993   0.00000 
C          C       0.97288   0.42969   0.00000 
C          C       0.98338   0.39806   0.00000 
H          H       0.96952   0.37812   0.00000 
C          C       0.94140   0.44115   0.00000 
C          C       0.91737   0.41770   0.00000 
C          C       0.86984   0.37000   0.00000 
C          C       0.27387   0.22393   0.00000 
C          C       0.29895   0.19880   0.00000 
N          N       0.34670   0.15270   0.00000 
C          C       0.25852   0.71740   0.00000 
C          C       0.16608   0.70948   0.00000 
C          C       0.15669   0.74188   0.00000 
C          C       0.17846   0.76717   0.00000 
C          C       0.14338   0.68460   0.00000 
H          H       0.13310   0.74772   0.00000 
H          H       0.17003   0.78992   0.00000 
O          O       0.11430   0.69154   0.00000 
C          C       0.78699   0.23888   0.00000 
C          C       0.79173   0.33126   0.00000 
C          C       0.75902   0.33906   0.00000 
C          C       0.73512   0.31569   0.00000 
C          C       0.81570   0.35490   0.00000 
H          H       0.75201   0.36234   0.00000 
H          H       0.71241   0.32401   0.00000 
O          O       0.80764   0.38368   0.00000 
C          C       0.47345   0.06778   0.00000 
C          C       0.48369   0.09934   0.00000 
H          H       0.46993   0.11935   0.00000 
C          C       0.42969   0.02712   0.00000 
C          C       0.39806   0.01662   0.00000 
H          H       0.37812   0.03048   0.00000 
C          C       0.44115   0.05860   0.00000 
C          C       0.41770   0.08263   0.00000 
C          C       0.37000   0.13016   0.00000 
C          C       0.22393   0.72613   0.00000 
C          C       0.19880   0.70104   0.00000 
N          N       0.15270   0.65330   0.00000 
C          C       0.74148   0.28260   0.00000 
C          C       0.83392   0.29052   0.00000 
C          C       0.84331   0.25812   0.00000 
C          C       0.82154   0.23283   0.00000 
C          C       0.85662   0.31540   0.00000 
H          H       0.86690   0.25228   0.00000 
H          H       0.82997   0.21008   0.00000 
O          O       0.88570   0.30846   0.00000 
C          C       0.21301   0.76112   0.00000 
C          C       0.20827   0.66873   0.00000 
C          C       0.24097   0.66094   0.00000 
C          C       0.26487   0.68431   0.00000 
C          C       0.18430   0.64510   0.00000 
H          H       0.24799   0.63766   0.00000 
H          H       0.28759   0.67599   0.00000 
O          O       0.19236   0.61632   0.00000 
C          C       0.52655   0.93222   0.00000 
C          C       0.51631   0.90066   0.00000 
H          H       0.53007   0.88065   0.00000 
C          C       0.57031   0.97288   0.00000 
C          C       0.60194   0.98338   0.00000 
H          H       0.62188   0.96952   0.00000 
C          C       0.55885   0.94140   0.00000 
C          C       0.58229   0.91737   0.00000 
C          C       0.63000   0.86984   0.00000 
C          C       0.77607   0.27387   0.00000 
C          C       0.80119   0.29895   0.00000 
N          N       0.84730   0.34670   0.00000 
C          C       0.28260   0.74148   0.00000 
C          C       0.29052   0.83392   0.00000 
C          C       0.25812   0.84331   0.00000 
C          C       0.23283   0.82154   0.00000 
C          C       0.31540   0.85662   0.00000 
H          H       0.25228   0.86690   0.00000 
H          H       0.21008   0.82997   0.00000 
O          O       0.30846   0.88570   0.00000 
C          C       0.76112   0.21301   0.00000 
C          C       0.66873   0.20827   0.00000 
C          C       0.66094   0.24097   0.00000 
C          C       0.68431   0.26487   0.00000 
C          C       0.64510   0.18430   0.00000 
H          H       0.63766   0.24799   0.00000 
H          H       0.67599   0.28759   0.00000 
O          O       0.61632   0.19236   0.00000 
C          C       0.93222   0.52655   0.00000 
C          C       0.90066   0.51631   0.00000 
H          H       0.88065   0.53007   0.00000 
C          C       0.97288   0.57031   0.00000 
C          C       0.98338   0.60194   0.00000 
H          H       0.96952   0.62188   0.00000 
C          C       0.94140   0.55885   0.00000 
C          C       0.91737   0.58229   0.00000 
C          C       0.86984   0.63000   0.00000 
C          C       0.27387   0.77607   0.00000 
C          C       0.29895   0.80119   0.00000 
N          N       0.34670   0.84730   0.00000 
C          C       0.71740   0.25852   0.00000 
C          C       0.70948   0.16608   0.00000 
C          C       0.74188   0.15669   0.00000 
C          C       0.76717   0.17846   0.00000 
C          C       0.68460   0.14338   0.00000 
H          H       0.74772   0.13310   0.00000 
H          H       0.78992   0.17003   0.00000 
O          O       0.69154   0.11430   0.00000 
C          C       0.23888   0.78699   0.00000 
C          C       0.33126   0.79173   0.00000 
C          C       0.33906   0.75902   0.00000 
C          C       0.31569   0.73512   0.00000 
C          C       0.35490   0.81570   0.00000 
H          H       0.36234   0.75201   0.00000 
H          H       0.32401   0.71241   0.00000 
O          O       0.38368   0.80764   0.00000 
C          C       0.06778   0.47345   0.00000 
C          C       0.09934   0.48369   0.00000 
H          H       0.11935   0.46993   0.00000 
C          C       0.02712   0.42969   0.00000 
C          C       0.01662   0.39806   0.00000 
H          H       0.03048   0.37812   0.00000 
C          C       0.05860   0.44115   0.00000 
C          C       0.08263   0.41770   0.00000 
C          C       0.13016   0.37000   0.00000 
C          C       0.72613   0.22393   0.00000 
C          C       0.70104   0.19880   0.00000 
N          N       0.65330   0.15270   0.00000 
C          C       0.74148   0.71740   0.00000 
C          C       0.83392   0.70948   0.00000 
C          C       0.84331   0.74188   0.00000 
C          C       0.82154   0.76717   0.00000 
C          C       0.85662   0.68460   0.00000 
H          H       0.86690   0.74772   0.00000 
H          H       0.82997   0.78992   0.00000 
O          O       0.88570   0.69154   0.00000 
C          C       0.21301   0.23888   0.00000 
C          C       0.20827   0.33126   0.00000 
C          C       0.24097   0.33906   0.00000 
C          C       0.26487   0.31569   0.00000 
C          C       0.18430   0.35490   0.00000 
H          H       0.24799   0.36234   0.00000 
H          H       0.28759   0.32401   0.00000 
O          O       0.19236   0.38368   0.00000 
C          C       0.52655   0.06778   0.00000 
C          C       0.51631   0.09934   0.00000 
H          H       0.53007   0.11935   0.00000 
C          C       0.57031   0.02712   0.00000 
C          C       0.60194   0.01662   0.00000 
H          H       0.62188   0.03048   0.00000 
C          C       0.55885   0.05860   0.00000 
C          C       0.58229   0.08263   0.00000 
C          C       0.63000   0.13016   0.00000 
C          C       0.77607   0.72613   0.00000 
C          C       0.80119   0.70104   0.00000 
N          N       0.84730   0.65330   0.00000 
C          C       0.25852   0.28260   0.00000 
C          C       0.16608   0.29052   0.00000 
C          C       0.15669   0.25812   0.00000 
C          C       0.17846   0.23283   0.00000 
C          C       0.14338   0.31540   0.00000 
H          H       0.13310   0.25228   0.00000 
H          H       0.17003   0.21008   0.00000 
O          O       0.11430   0.30846   0.00000 
C          C       0.78699   0.76112   0.00000 
C          C       0.79173   0.66873   0.00000 
C          C       0.75902   0.66094   0.00000 
C          C       0.73512   0.68431   0.00000 
C          C       0.81570   0.64510   0.00000 
H          H       0.75201   0.63766   0.00000 
H          H       0.71241   0.67599   0.00000 
O          O       0.80764   0.61632   0.00000 
C          C       0.47345   0.93222   0.00000 
C          C       0.48369   0.90066   0.00000 
H          H       0.46993   0.88065   0.00000 
C          C       0.42969   0.97288   0.00000 
C          C       0.39806   0.98338   0.00000 
H          H       0.37812   0.96952   0.00000 
C          C       0.44115   0.94140   0.00000 
C          C       0.41770   0.91737   0.00000 
C          C       0.37000   0.86984   0.00000 
C          C       0.22393   0.27387   0.00000 
C          C       0.19880   0.29895   0.00000 
N          N       0.15270   0.34670   0.00000 
N          N       0.00000   0.55909   0.00000 
N          N       0.00000   0.44091   0.00000 
N          N       0.44091   0.00000   0.00000 
N          N       0.55909   0.00000   0.00000 
N          N       0.04955   0.50000   0.00000 
H          H       0.02650   0.50000   0.00000 
N          N       0.95045   0.50000   0.00000 
H          H       0.97350   0.50000   0.00000 
N          N       0.50000   0.04955   0.00000 
H          H       0.50000   0.02650   0.00000 
N          N       0.50000   0.95045   0.00000 
H          H       0.50000   0.97350   0.00000 
C          C       0.09469   0.59425   0.40857 
H          H       0.08631   0.58584   0.34166 
C          C       0.11827   0.61792   0.40864 
H          H       0.12673   0.62642   0.34202 
C          C       0.90531   0.40575   0.40857 
H          H       0.91368   0.41416   0.34166 
C          C       0.88173   0.38208   0.40864 
H          H       0.87327   0.37358   0.34202 
C          C       0.40575   0.09469   0.40857 
H          H       0.41416   0.08631   0.34166 
C          C       0.38208   0.11827   0.40864 
H          H       0.37358   0.12673   0.34202 
C          C       0.59425   0.90531   0.40857 
H          H       0.58584   0.91368   0.34166 
C          C       0.61792   0.88173   0.40864 
H          H       0.62642   0.87327   0.34202 
C          C       0.90531   0.59425   0.59142 
H          H       0.91368   0.58584   0.65833 
C          C       0.88173   0.61792   0.59135 
H          H       0.87327   0.62642   0.65798 
C          C       0.09469   0.40575   0.59142 
H          H       0.08631   0.41416   0.65833 
C          C       0.11827   0.38208   0.59135 
H          H       0.12673   0.37358   0.65798 
C          C       0.59425   0.09469   0.59142 
H          H       0.58584   0.08631   0.65833 
C          C       0.61792   0.11827   0.59135 
H          H       0.62642   0.12673   0.65798 
C          C       0.40575   0.90531   0.59142 
H          H       0.41416   0.91368   0.65833 
C          C       0.38208   0.88173   0.59135 
H          H       0.37358   0.87327   0.65798 
C          C       0.90531   0.40575   0.59142 
H          H       0.91368   0.41416   0.65833 
C          C       0.88173   0.38208   0.59135 
H          H       0.87327   0.37358   0.65798 
C          C       0.09469   0.59425   0.59142 
H          H       0.08631   0.58584   0.65833 
C          C       0.11827   0.61792   0.59135 
H          H       0.12673   0.62642   0.65798 
C          C       0.59425   0.90531   0.59142 
H          H       0.58584   0.91368   0.65833 
C          C       0.61792   0.88173   0.59135 
H          H       0.62642   0.87327   0.65798 
C          C       0.40575   0.09469   0.59142 
H          H       0.41416   0.08631   0.65833 
C          C       0.38208   0.11827   0.59135 
H          H       0.37358   0.12673   0.65798 
C          C       0.09469   0.40575   0.40857 
H          H       0.08631   0.41416   0.34166 
C          C       0.11827   0.38208   0.40864 
H          H       0.12673   0.37358   0.34202 
C          C       0.90531   0.59425   0.40857 
H          H       0.91368   0.58584   0.34166 
C          C       0.88173   0.61792   0.40864 
H          H       0.87327   0.62642   0.34202 
C          C       0.40575   0.90531   0.40857 
H          H       0.41416   0.91368   0.34166 
C          C       0.38208   0.88173   0.40864 
H          H       0.37358   0.87327   0.34202 
C          C       0.59425   0.09469   0.40857 
H          H       0.58584   0.08631   0.34166 
C          C       0.61792   0.11827   0.40864 
H          H       0.62642   0.12673   0.34202 
C          C       0.71740   0.74148   0.50000 
C          C       0.70948   0.83392   0.50000 
C          C       0.74188   0.84331   0.50000 
C          C       0.76717   0.82154   0.50000 
C          C       0.68460   0.85662   0.50000 
H          H       0.74772   0.86690   0.50000 
H          H       0.78992   0.82997   0.50000 
O          O       0.69154   0.88570   0.50000 
C          C       0.23888   0.21301   0.50000 
C          C       0.33126   0.20827   0.50000 
C          C       0.33906   0.24097   0.50000 
C          C       0.31569   0.26487   0.50000 
C          C       0.35490   0.18430   0.50000 
H          H       0.36234   0.24799   0.50000 
H          H       0.32401   0.28759   0.50000 
O          O       0.38368   0.19236   0.50000 
C          C       0.06778   0.52655   0.50000 
C          C       0.09934   0.51631   0.50000 
H          H       0.11935   0.53007   0.50000 
C          C       0.02712   0.57031   0.50000 
C          C       0.01662   0.60194   0.50000 
H          H       0.03048   0.62188   0.50000 
C          C       0.05860   0.55885   0.50000 
C          C       0.08263   0.58229   0.50000 
C          C       0.13016   0.63000   0.50000 
C          C       0.72613   0.77607   0.50000 
C          C       0.70104   0.80119   0.50000 
N          N       0.65330   0.84730   0.50000 
C          C       0.28260   0.25852   0.50000 
C          C       0.29052   0.16608   0.50000 
C          C       0.25812   0.15669   0.50000 
C          C       0.23283   0.17846   0.50000 
C          C       0.31540   0.14338   0.50000 
H          H       0.25228   0.13310   0.50000 
H          H       0.21008   0.17003   0.50000 
O          O       0.30846   0.11430   0.50000 
C          C       0.76112   0.78699   0.50000 
C          C       0.66873   0.79173   0.50000 
C          C       0.66094   0.75902   0.50000 
C          C       0.68431   0.73512   0.50000 
C          C       0.64510   0.81570   0.50000 
H          H       0.63766   0.75201   0.50000 
H          H       0.67599   0.71241   0.50000 
O          O       0.61632   0.80764   0.50000 
C          C       0.93222   0.47345   0.50000 
C          C       0.90066   0.48369   0.50000 
H          H       0.88065   0.46993   0.50000 
C          C       0.97288   0.42969   0.50000 
C          C       0.98338   0.39806   0.50000 
H          H       0.96952   0.37812   0.50000 
C          C       0.94140   0.44115   0.50000 
C          C       0.91737   0.41770   0.50000 
C          C       0.86984   0.37000   0.50000 
C          C       0.27387   0.22393   0.50000 
C          C       0.29895   0.19880   0.50000 
N          N       0.34670   0.15270   0.50000 
C          C       0.25852   0.71740   0.50000 
C          C       0.16608   0.70948   0.50000 
C          C       0.15669   0.74188   0.50000 
C          C       0.17846   0.76717   0.50000 
C          C       0.14338   0.68460   0.50000 
H          H       0.13310   0.74772   0.50000 
H          H       0.17003   0.78992   0.50000 
O          O       0.11430   0.69154   0.50000 
C          C       0.78699   0.23888   0.50000 
C          C       0.79173   0.33126   0.50000 
C          C       0.75902   0.33906   0.50000 
C          C       0.73512   0.31569   0.50000 
C          C       0.81570   0.35490   0.50000 
H          H       0.75201   0.36234   0.50000 
H          H       0.71241   0.32401   0.50000 
O          O       0.80764   0.38368   0.50000 
C          C       0.47345   0.06778   0.50000 
C          C       0.48369   0.09934   0.50000 
H          H       0.46993   0.11935   0.50000 
C          C       0.42969   0.02712   0.50000 
C          C       0.39806   0.01662   0.50000 
H          H       0.37812   0.03048   0.50000 
C          C       0.44115   0.05860   0.50000 
C          C       0.41770   0.08263   0.50000 
C          C       0.37000   0.13016   0.50000 
C          C       0.22393   0.72613   0.50000 
C          C       0.19880   0.70104   0.50000 
N          N       0.15270   0.65330   0.50000 
C          C       0.74148   0.28260   0.50000 
C          C       0.83392   0.29052   0.50000 
C          C       0.84331   0.25812   0.50000 
C          C       0.82154   0.23283   0.50000 
C          C       0.85662   0.31540   0.50000 
H          H       0.86690   0.25228   0.50000 
H          H       0.82997   0.21008   0.50000 
O          O       0.88570   0.30846   0.50000 
C          C       0.21301   0.76112   0.50000 
C          C       0.20827   0.66873   0.50000 
C          C       0.24097   0.66094   0.50000 
C          C       0.26487   0.68431   0.50000 
C          C       0.18430   0.64510   0.50000 
H          H       0.24799   0.63766   0.50000 
H          H       0.28759   0.67599   0.50000 
O          O       0.19236   0.61632   0.50000 
C          C       0.52655   0.93222   0.50000 
C          C       0.51631   0.90066   0.50000 
H          H       0.53007   0.88065   0.50000 
C          C       0.57031   0.97288   0.50000 
C          C       0.60194   0.98338   0.50000 
H          H       0.62188   0.96952   0.50000 
C          C       0.55885   0.94140   0.50000 
C          C       0.58229   0.91737   0.50000 
C          C       0.63000   0.86984   0.50000 
C          C       0.77607   0.27387   0.50000 
C          C       0.80119   0.29895   0.50000 
N          N       0.84730   0.34670   0.50000 
C          C       0.28260   0.74148   0.50000 
C          C       0.29052   0.83392   0.50000 
C          C       0.25812   0.84331   0.50000 
C          C       0.23283   0.82154   0.50000 
C          C       0.31540   0.85662   0.50000 
H          H       0.25228   0.86690   0.50000 
H          H       0.21008   0.82997   0.50000 
O          O       0.30846   0.88570   0.50000 
C          C       0.76112   0.21301   0.50000 
C          C       0.66873   0.20827   0.50000 
C          C       0.66094   0.24097   0.50000 
C          C       0.68431   0.26487   0.50000 
C          C       0.64510   0.18430   0.50000 
H          H       0.63766   0.24799   0.50000 
H          H       0.67599   0.28759   0.50000 
O          O       0.61632   0.19236   0.50000 
C          C       0.93222   0.52655   0.50000 
C          C       0.90066   0.51631   0.50000 
H          H       0.88065   0.53007   0.50000 
C          C       0.97288   0.57031   0.50000 
C          C       0.98338   0.60194   0.50000 
H          H       0.96952   0.62188   0.50000 
C          C       0.94140   0.55885   0.50000 
C          C       0.91737   0.58229   0.50000 
C          C       0.86984   0.63000   0.50000 
C          C       0.27387   0.77607   0.50000 
C          C       0.29895   0.80119   0.50000 
N          N       0.34670   0.84730   0.50000 
C          C       0.71740   0.25852   0.50000 
C          C       0.70948   0.16608   0.50000 
C          C       0.74188   0.15669   0.50000 
C          C       0.76717   0.17846   0.50000 
C          C       0.68460   0.14338   0.50000 
H          H       0.74772   0.13310   0.50000 
H          H       0.78992   0.17003   0.50000 
O          O       0.69154   0.11430   0.50000 
C          C       0.23888   0.78699   0.50000 
C          C       0.33126   0.79173   0.50000 
C          C       0.33906   0.75902   0.50000 
C          C       0.31569   0.73512   0.50000 
C          C       0.35490   0.81570   0.50000 
H          H       0.36234   0.75201   0.50000 
H          H       0.32401   0.71241   0.50000 
O          O       0.38368   0.80764   0.50000 
C          C       0.06778   0.47345   0.50000 
C          C       0.09934   0.48369   0.50000 
H          H       0.11935   0.46993   0.50000 
C          C       0.02712   0.42969   0.50000 
C          C       0.01662   0.39806   0.50000 
H          H       0.03048   0.37812   0.50000 
C          C       0.05860   0.44115   0.50000 
C          C       0.08263   0.41770   0.50000 
C          C       0.13016   0.37000   0.50000 
C          C       0.72613   0.22393   0.50000 
C          C       0.70104   0.19880   0.50000 
N          N       0.65330   0.15270   0.50000 
C          C       0.74148   0.71740   0.50000 
C          C       0.83392   0.70948   0.50000 
C          C       0.84331   0.74188   0.50000 
C          C       0.82154   0.76717   0.50000 
C          C       0.85662   0.68460   0.50000 
H          H       0.86690   0.74772   0.50000 
H          H       0.82997   0.78992   0.50000 
O          O       0.88570   0.69154   0.50000 
C          C       0.21301   0.23888   0.50000 
C          C       0.20827   0.33126   0.50000 
C          C       0.24097   0.33906   0.50000 
C          C       0.26487   0.31569   0.50000 
C          C       0.18430   0.35490   0.50000 
H          H       0.24799   0.36234   0.50000 
H          H       0.28759   0.32401   0.50000 
O          O       0.19236   0.38368   0.50000 
C          C       0.52655   0.06778   0.50000 
C          C       0.51631   0.09934   0.50000 
H          H       0.53007   0.11935   0.50000 
C          C       0.57031   0.02712   0.50000 
C          C       0.60194   0.01662   0.50000 
H          H       0.62188   0.03048   0.50000 
C          C       0.55885   0.05860   0.50000 
C          C       0.58229   0.08263   0.50000 
C          C       0.63000   0.13016   0.50000 
C          C       0.77607   0.72613   0.50000 
C          C       0.80119   0.70104   0.50000 
N          N       0.84730   0.65330   0.50000 
C          C       0.25852   0.28260   0.50000 
C          C       0.16608   0.29052   0.50000 
C          C       0.15669   0.25812   0.50000 
C          C       0.17846   0.23283   0.50000 
C          C       0.14338   0.31540   0.50000 
H          H       0.13310   0.25228   0.50000 
H          H       0.17003   0.21008   0.50000 
O          O       0.11430   0.30846   0.50000 
C          C       0.78699   0.76112   0.50000 
C          C       0.79173   0.66873   0.50000 
C          C       0.75902   0.66094   0.50000 
C          C       0.73512   0.68431   0.50000 
C          C       0.81570   0.64510   0.50000 
H          H       0.75201   0.63766   0.50000 
H          H       0.71241   0.67599   0.50000 
O          O       0.80764   0.61632   0.50000 
C          C       0.47345   0.93222   0.50000 
C          C       0.48369   0.90066   0.50000 
H          H       0.46993   0.88065   0.50000 
C          C       0.42969   0.97288   0.50000 
C          C       0.39806   0.98338   0.50000 
H          H       0.37812   0.96952   0.50000 
C          C       0.44115   0.94140   0.50000 
C          C       0.41770   0.91737   0.50000 
C          C       0.37000   0.86984   0.50000 
C          C       0.22393   0.27387   0.50000 
C          C       0.19880   0.29895   0.50000 
N          N       0.15270   0.34670   0.50000 
N          N       0.00000   0.55909   0.50000 
N          N       0.00000   0.44091   0.50000 
N          N       0.44091   0.00000   0.50000 
N          N       0.55909   0.00000   0.50000 
N          N       0.04955   0.50000   0.50000 
H          H       0.02650   0.50000   0.50000 
N          N       0.95045   0.50000   0.50000 
H          H       0.97350   0.50000   0.50000 
N          N       0.50000   0.04955   0.50000 
H          H       0.50000   0.02650   0.50000 
N          N       0.50000   0.95045   0.50000 
H          H       0.50000   0.97350   0.50000 
