data_crystal
 
_cell_length_a    26.36730
_cell_length_b    26.36730
_cell_length_c    3.52490
_cell_angle_alpha 90.00000
_cell_angle_beta  90.00000
_cell_angle_gamma 120.00000
 
_symmetry_space_group_name_Hall 'P 1'
_symmetry_space_group_name_H-M  'P 1'
 
loop_
_symmetry_equiv_pos_as_xyz
 'x,y,z' 
 
loop_
_atom_site_label
_atom_site_type_symbol
_atom_site_fract_x
_atom_site_fract_y
_atom_site_fract_z
_atom_site_charge
C          C       0.02093   0.55775   0.50000   0.0000000000
C          C       0.44225   0.46318   0.50000   0.0000000000
C          C       0.53682   0.97907   0.50000   0.0000000000
N          N       0.98073   0.49992   0.50000   0.0000000000
N          N       0.50008   0.48081   0.50000   0.0000000000
N          N       0.51918   0.01927   0.50000   0.0000000000
H          H       0.00717   0.58776   0.50000   0.0000000000
H          H       0.41224   0.41941   0.50000   0.0000000000
H          H       0.58058   0.99283   0.50000   0.0000000000
C          C       0.12212   0.63864   0.50000   0.0000000000
C          C       0.36136   0.48348   0.50000   0.0000000000
C          C       0.51652   0.87787   0.50000   0.0000000000
C          C       0.18284   0.65973   0.50000   0.0000000000
C          C       0.34027   0.52310   0.50000   0.0000000000
C          C       0.47689   0.81716   0.50000   0.0000000000
C          C       0.89231   0.41022   0.50000   0.0000000000
C          C       0.58978   0.48209   0.50000   0.0000000000
C          C       0.51791   0.10769   0.50000   0.0000000000
C          C       0.83071   0.37692   0.50000   0.0000000000
C          C       0.62308   0.45379   0.50000   0.0000000000
C          C       0.54621   0.16929   0.50000   0.0000000000
H          H       0.10776   0.66826   0.50000   0.0000000000
H          H       0.33174   0.43950   0.50000   0.0000000000
H          H       0.56050   0.89224   0.50000   0.0000000000
H          H       0.20795   0.70407   0.50000   0.0000000000
H          H       0.29593   0.50387   0.50000   0.0000000000
H          H       0.49612   0.79205   0.50000   0.0000000000
H          H       0.91620   0.38933   0.50000   0.0000000000
H          H       0.61067   0.52687   0.50000   0.0000000000
H          H       0.47313   0.08380   0.50000   0.0000000000
H          H       0.81422   0.33291   0.50000   0.0000000000
H          H       0.66709   0.48131   0.50000   0.0000000000
H          H       0.51869   0.18578   0.50000   0.0000000000
C          C       0.43547   0.89563   0.50000   0.0000000000
C          C       0.10437   0.53984   0.50000   0.0000000000
C          C       0.46016   0.56453   0.50000   0.0000000000
C          C       0.39628   0.83483   0.50000   0.0000000000
C          C       0.16517   0.56145   0.50000   0.0000000000
C          C       0.43855   0.60372   0.50000   0.0000000000
C          C       0.61161   0.11287   0.50000   0.0000000000
C          C       0.88713   0.49874   0.50000   0.0000000000
C          C       0.50126   0.38838   0.50000   0.0000000000
C          C       0.63951   0.17446   0.50000   0.0000000000
C          C       0.82554   0.46505   0.50000   0.0000000000
C          C       0.53495   0.36049   0.50000   0.0000000000
H          H       0.41888   0.92341   0.50000   0.0000000000
H          H       0.07659   0.49547   0.50000   0.0000000000
H          H       0.50453   0.58112   0.50000   0.0000000000
H          H       0.35334   0.82336   0.50000   0.0000000000
H          H       0.17663   0.52997   0.50000   0.0000000000
H          H       0.47003   0.64666   0.50000   0.0000000000
H          H       0.63677   0.09347   0.50000   0.0000000000
H          H       0.90652   0.54330   0.50000   0.0000000000
H          H       0.45670   0.36323   0.50000   0.0000000000
H          H       0.68395   0.19501   0.50000   0.0000000000
H          H       0.80499   0.48894   0.50000   0.0000000000
H          H       0.51106   0.31605   0.50000   0.0000000000
C          C       0.37413   0.72962   0.50000   0.0000000000
C          C       0.27038   0.64451   0.50000   0.0000000000
C          C       0.35548   0.62587   0.50000   0.0000000000
C          C       0.49652   0.91841   0.50000   0.0000000000
C          C       0.08159   0.57811   0.50000   0.0000000000
C          C       0.42189   0.50348   0.50000   0.0000000000
C          C       0.41469   0.79220   0.50000   0.0000000000
C          C       0.20780   0.62248   0.50000   0.0000000000
C          C       0.37752   0.58531   0.50000   0.0000000000
C          C       0.39263   0.68753   0.50000   0.0000000000
C          C       0.31247   0.70509   0.50000   0.0000000000
C          C       0.29490   0.60737   0.50000   0.0000000000
C          C       0.63752   0.26955   0.50000   0.0000000000
C          C       0.73045   0.36796   0.50000   0.0000000000
C          C       0.63204   0.36248   0.50000   0.0000000000
C          C       0.55015   0.07856   0.50000   0.0000000000
C          C       0.92144   0.47159   0.50000   0.0000000000
C          C       0.52841   0.44985   0.50000   0.0000000000
C          C       0.60852   0.20613   0.50000   0.0000000000
C          C       0.79387   0.40239   0.50000   0.0000000000
C          C       0.59761   0.39148   0.50000   0.0000000000
C          C       0.60658   0.30071   0.50000   0.0000000000
C          C       0.69929   0.30587   0.50000   0.0000000000
C          C       0.69413   0.39342   0.50000   0.0000000000
H          H       0.43582   0.70272   0.50000   0.0000000000
H          H       0.56282   0.27694   0.50000   0.0000000000
H          H       0.29727   0.73309   0.50000   0.0000000000
H          H       0.72305   0.28587   0.50000   0.0000000000
H          H       0.26691   0.56418   0.50000   0.0000000000
H          H       0.71413   0.43718   0.50000   0.0000000000
