data_crystal

_cell_length_a    30.04380
_cell_length_b    30.04380
_cell_length_c    6.97540
_cell_angle_alpha 90.00000
_cell_angle_beta  90.00000
_cell_angle_gamma 120.00000

_space_group_name_Hall 'P 1'
_space_group_name_H-M_alt  'P 1'

loop_
_symmetry_equiv_pos_as_xyz
'x,y,z' 

loop_
_atom_site_label
_atom_site_type_symbol
_atom_site_fract_x
_atom_site_fract_y
_atom_site_fract_z
O          O       0.30651   0.56779   0.00000 
O          O       0.43221   0.73872   0.00000 
O          O       0.26128   0.69349   0.00000 
N          N       0.40625   0.59218   0.00000 
N          N       0.40782   0.81407   0.00000 
N          N       0.18593   0.59375   0.00000 
C          C       0.31947   0.61452   0.00000 
C          C       0.38547   0.70494   0.00000 
C          C       0.29506   0.68053   0.00000 
C          C       0.41286   0.64027   0.00000 
C          C       0.35973   0.77259   0.00000 
C          C       0.22741   0.58714   0.00000 
C          C       0.44227   0.57744   0.00000 
C          C       0.42256   0.86483   0.00000 
C          C       0.13517   0.55773   0.00000 
C          C       0.49620   0.61040   0.00000 
C          C       0.38960   0.88580   0.00000 
C          C       0.11420   0.50380   0.00000 
C          C       0.52962   0.59029   0.00000 
C          C       0.40971   0.93933   0.00000 
C          C       0.06067   0.47038   0.00000 
C          C       0.50951   0.53642   0.00000 
C          C       0.46358   0.97309   0.00000 
C          C       0.02691   0.49049   0.00000 
N          N       0.45736   0.50621   0.00000 
N          N       0.49379   0.95114   0.00000 
N          N       0.04886   0.54264   0.00000 
C          C       0.42399   0.52416   0.00000 
C          C       0.47584   0.89983   0.00000 
C          C       0.10017   0.57601   0.00000 
C          C       0.37261   0.65242   0.00000 
C          C       0.34758   0.72019   0.00000 
C          C       0.27981   0.62739   0.00000 
H          H       0.44987   0.66993   0.00000 
H          H       0.33007   0.77994   0.00000 
H          H       0.22006   0.55013   0.00000 
H          H       0.51205   0.64938   0.00000 
H          H       0.35062   0.86267   0.00000 
H          H       0.13733   0.48795   0.00000 
H          H       0.37116   0.56453   0.00000 
H          H       0.43546   0.80663   0.00000 
H          H       0.19337   0.62884   0.00000 
H          H       0.38545   0.49823   0.00000 
H          H       0.50177   0.88722   0.00000 
H          H       0.11278   0.61455   0.00000 
H          H       0.56820   0.61556   0.00000 
H          H       0.38444   0.95264   0.00000 
H          H       0.04736   0.43180   0.00000 
O          O       0.71202   0.43539   0.00000 
O          O       0.56461   0.27663   0.00000 
O          O       0.72337   0.28798   0.00000 
N          N       0.61982   0.43095   0.00000 
N          N       0.56905   0.18887   0.00000 
N          N       0.81113   0.38018   0.00000 
C          C       0.69034   0.38721   0.00000 
C          C       0.61279   0.30312   0.00000 
C          C       0.69688   0.30966   0.00000 
C          C       0.60336   0.37988   0.00000 
C          C       0.62012   0.22348   0.00000 
C          C       0.77652   0.39664   0.00000 
C          C       0.59173   0.45503   0.00000 
C          C       0.54497   0.13669   0.00000 
C          C       0.86331   0.40827   0.00000 
C          C       0.53751   0.43087   0.00000 
C          C       0.56913   0.10664   0.00000 
C          C       0.89336   0.46249   0.00000 
N          N       0.51423   0.45959   0.00000 
N          N       0.54041   0.05464   0.00000 
N          N       0.94536   0.48577   0.00000 
C          C       0.53936   0.51195   0.00000 
C          C       0.48805   0.02741   0.00000 
C          C       0.97259   0.46064   0.00000 
C          C       0.59376   0.53768   0.00000 
C          C       0.46232   0.05608   0.00000 
C          C       0.94392   0.40623   0.00000 
C          C       0.61934   0.50923   0.00000 
C          C       0.49077   0.11012   0.00000 
C          C       0.88988   0.38066   0.00000 
C          C       0.63567   0.35764   0.00000 
C          C       0.64236   0.27803   0.00000 
C          C       0.72197   0.36433   0.00000 
H          H       0.56456   0.35572   0.00000 
H          H       0.64428   0.20884   0.00000 
H          H       0.79116   0.43544   0.00000 
H          H       0.51470   0.39191   0.00000 
H          H       0.60809   0.12279   0.00000 
H          H       0.87721   0.48530   0.00000 
H          H       0.65650   0.45336   0.00000 
H          H       0.54664   0.20314   0.00000 
H          H       0.79686   0.34350   0.00000 
H          H       0.65869   0.52863   0.00000 
H          H       0.47137   0.13007   0.00000 
H          H       0.86993   0.34131   0.00000 
H          H       0.61552   0.57680   0.00000 
H          H       0.42320   0.03872   0.00000 
H          H       0.96128   0.38448   0.00000 
O          O       0.30651   0.56779   0.50000 
O          O       0.43221   0.73872   0.50000 
O          O       0.26128   0.69349   0.50000 
N          N       0.40625   0.59218   0.50000 
N          N       0.40782   0.81407   0.50000 
N          N       0.18593   0.59375   0.50000 
C          C       0.31947   0.61452   0.50000 
C          C       0.38547   0.70494   0.50000 
C          C       0.29506   0.68053   0.50000 
C          C       0.41286   0.64027   0.50000 
C          C       0.35973   0.77259   0.50000 
C          C       0.22741   0.58714   0.50000 
C          C       0.44227   0.57744   0.50000 
C          C       0.42256   0.86483   0.50000 
C          C       0.13517   0.55773   0.50000 
C          C       0.49620   0.61040   0.50000 
C          C       0.38960   0.88580   0.50000 
C          C       0.11420   0.50380   0.50000 
C          C       0.52962   0.59029   0.50000 
C          C       0.40971   0.93933   0.50000 
C          C       0.06067   0.47038   0.50000 
C          C       0.50951   0.53642   0.50000 
C          C       0.46358   0.97309   0.50000 
C          C       0.02691   0.49049   0.50000 
N          N       0.45736   0.50621   0.50000 
N          N       0.49379   0.95114   0.50000 
N          N       0.04886   0.54264   0.50000 
C          C       0.42399   0.52416   0.50000 
C          C       0.47584   0.89983   0.50000 
C          C       0.10017   0.57601   0.50000 
C          C       0.37261   0.65242   0.50000 
C          C       0.34758   0.72019   0.50000 
C          C       0.27981   0.62739   0.50000 
H          H       0.44987   0.66993   0.50000 
H          H       0.33007   0.77994   0.50000 
H          H       0.22006   0.55013   0.50000 
H          H       0.51205   0.64938   0.50000 
H          H       0.35062   0.86267   0.50000 
H          H       0.13733   0.48795   0.50000 
H          H       0.37116   0.56453   0.50000 
H          H       0.43546   0.80663   0.50000 
H          H       0.19337   0.62884   0.50000 
H          H       0.38545   0.49823   0.50000 
H          H       0.50177   0.88722   0.50000 
H          H       0.11278   0.61455   0.50000 
H          H       0.56820   0.61556   0.50000 
H          H       0.38444   0.95264   0.50000 
H          H       0.04736   0.43180   0.50000 
O          O       0.71202   0.43539   0.50000 
O          O       0.56461   0.27663   0.50000 
O          O       0.72337   0.28798   0.50000 
N          N       0.61982   0.43095   0.50000 
N          N       0.56905   0.18887   0.50000 
N          N       0.81113   0.38018   0.50000 
C          C       0.69034   0.38721   0.50000 
C          C       0.61279   0.30312   0.50000 
C          C       0.69688   0.30966   0.50000 
C          C       0.60336   0.37988   0.50000 
C          C       0.62012   0.22348   0.50000 
C          C       0.77652   0.39664   0.50000 
C          C       0.59173   0.45503   0.50000 
C          C       0.54497   0.13669   0.50000 
C          C       0.86331   0.40827   0.50000 
C          C       0.53751   0.43087   0.50000 
C          C       0.56913   0.10664   0.50000 
C          C       0.89336   0.46249   0.50000 
N          N       0.51423   0.45959   0.50000 
N          N       0.54041   0.05464   0.50000 
N          N       0.94536   0.48577   0.50000 
C          C       0.53936   0.51195   0.50000 
C          C       0.48805   0.02741   0.50000 
C          C       0.97259   0.46064   0.50000 
C          C       0.59376   0.53768   0.50000 
C          C       0.46232   0.05608   0.50000 
C          C       0.94392   0.40623   0.50000 
C          C       0.61934   0.50923   0.50000 
C          C       0.49077   0.11012   0.50000 
C          C       0.88988   0.38066   0.50000 
C          C       0.63567   0.35764   0.50000 
C          C       0.64236   0.27803   0.50000 
C          C       0.72197   0.36433   0.50000 
H          H       0.56456   0.35572   0.50000 
H          H       0.64428   0.20884   0.50000 
H          H       0.79116   0.43544   0.50000 
H          H       0.51470   0.39191   0.50000 
H          H       0.60809   0.12279   0.50000 
H          H       0.87721   0.48530   0.50000 
H          H       0.65650   0.45336   0.50000 
H          H       0.54664   0.20314   0.50000 
H          H       0.79686   0.34350   0.50000 
H          H       0.65869   0.52863   0.50000 
H          H       0.47137   0.13007   0.50000 
H          H       0.86993   0.34131   0.50000 
H          H       0.61552   0.57680   0.50000 
H          H       0.42320   0.03872   0.50000 
H          H       0.96128   0.38448   0.50000 
