data_crystal

_cell_length_a    38.04530
_cell_length_b    38.04530
_cell_length_c    6.99720
_cell_angle_alpha 90.00000
_cell_angle_beta  90.00000
_cell_angle_gamma 120.00000

_space_group_name_Hall 'P 1'
_space_group_name_H-M_alt  'P 1'

loop_
_symmetry_equiv_pos_as_xyz
'x,y,z' 

loop_
_atom_site_label
_atom_site_type_symbol
_atom_site_fract_x
_atom_site_fract_y
_atom_site_fract_z
C          C       0.97709   0.45807   0.00000 
C          C       0.01977   0.47781   0.00000 
C          C       0.04486   0.52075   0.00000 
C          C       0.91148   0.45907   0.00000 
C          C       0.11034   0.51947   0.00000 
C          C       0.15298   0.53909   0.00000 
C          C       0.17673   0.58168   0.00000 
C          C       0.15618   0.60393   0.00000 
C          C       0.11351   0.58404   0.00000 
N          N       0.78235   0.40244   0.00000 
C          C       0.75241   0.36299   0.00000 
C          C       0.70990   0.34899   0.00000 
C          C       0.69354   0.37545   0.00000 
H          H       0.96278   0.42723   0.00000 
H          H       0.03167   0.45909   0.00000 
H          H       0.09604   0.48865   0.00000 
H          H       0.16668   0.52177   0.00000 
H          H       0.17181   0.63490   0.00000 
H          H       0.10160   0.60273   0.00000 
H          H       0.76137   0.34183   0.00000 
O          O       0.71718   0.41316   0.00000 
H          H       0.77342   0.42206   0.00000 
C          C       0.54193   0.51902   0.00000 
C          C       0.52219   0.54196   0.00000 
C          C       0.47925   0.52411   0.00000 
C          C       0.54093   0.45241   0.00000 
C          C       0.48053   0.59087   0.00000 
C          C       0.46091   0.61388   0.00000 
C          C       0.41832   0.59505   0.00000 
C          C       0.39607   0.55225   0.00000 
C          C       0.41596   0.52947   0.00000 
N          N       0.59756   0.37990   0.00000 
C          C       0.63701   0.38942   0.00000 
C          C       0.65101   0.36091   0.00000 
C          C       0.62455   0.31809   0.00000 
H          H       0.57277   0.53555   0.00000 
H          H       0.54091   0.57258   0.00000 
H          H       0.51135   0.60740   0.00000 
H          H       0.47823   0.64491   0.00000 
H          H       0.36510   0.53691   0.00000 
H          H       0.39727   0.49887   0.00000 
H          H       0.65817   0.41954   0.00000 
O          O       0.58684   0.30403   0.00000 
H          H       0.57794   0.35137   0.00000 
C          C       0.48098   0.02291   0.00000 
C          C       0.45804   0.98023   0.00000 
C          C       0.47589   0.95514   0.00000 
C          C       0.54759   0.08852   0.00000 
C          C       0.40913   0.88966   0.00000 
C          C       0.38612   0.84702   0.00000 
C          C       0.40495   0.82327   0.00000 
C          C       0.44775   0.84382   0.00000 
C          C       0.47053   0.88649   0.00000 
N          N       0.62010   0.21765   0.00000 
C          C       0.61059   0.24759   0.00000 
C          C       0.63909   0.29010   0.00000 
C          C       0.68191   0.30646   0.00000 
H          H       0.46445   0.03722   0.00000 
H          H       0.42742   0.96833   0.00000 
H          H       0.39260   0.90396   0.00000 
H          H       0.35509   0.83332   0.00000 
H          H       0.46309   0.82819   0.00000 
H          H       0.50113   0.89841   0.00000 
H          H       0.58046   0.23863   0.00000 
O          O       0.69597   0.28282   0.00000 
H          H       0.64863   0.22658   0.00000 
C          C       0.02291   0.54193   0.00000 
C          C       0.98023   0.52219   0.00000 
C          C       0.95514   0.47925   0.00000 
C          C       0.08852   0.54093   0.00000 
C          C       0.88966   0.48053   0.00000 
C          C       0.84702   0.46091   0.00000 
C          C       0.82327   0.41832   0.00000 
C          C       0.84382   0.39607   0.00000 
C          C       0.88649   0.41596   0.00000 
N          N       0.21765   0.59756   0.00000 
C          C       0.24759   0.63701   0.00000 
C          C       0.29010   0.65101   0.00000 
C          C       0.30646   0.62455   0.00000 
H          H       0.03722   0.57277   0.00000 
H          H       0.96833   0.54091   0.00000 
H          H       0.90396   0.51135   0.00000 
H          H       0.83332   0.47823   0.00000 
H          H       0.82819   0.36510   0.00000 
H          H       0.89841   0.39727   0.00000 
H          H       0.23863   0.65817   0.00000 
O          O       0.28282   0.58684   0.00000 
H          H       0.22658   0.57794   0.00000 
C          C       0.45807   0.48098   0.00000 
C          C       0.47781   0.45804   0.00000 
C          C       0.52075   0.47589   0.00000 
C          C       0.45907   0.54759   0.00000 
C          C       0.51947   0.40913   0.00000 
C          C       0.53909   0.38612   0.00000 
C          C       0.58168   0.40495   0.00000 
C          C       0.60393   0.44775   0.00000 
C          C       0.58404   0.47053   0.00000 
N          N       0.40244   0.62010   0.00000 
C          C       0.36299   0.61059   0.00000 
C          C       0.34899   0.63909   0.00000 
C          C       0.37545   0.68191   0.00000 
H          H       0.42723   0.46445   0.00000 
H          H       0.45909   0.42742   0.00000 
H          H       0.48865   0.39260   0.00000 
H          H       0.52177   0.35509   0.00000 
H          H       0.63490   0.46309   0.00000 
H          H       0.60273   0.50113   0.00000 
H          H       0.34183   0.58046   0.00000 
O          O       0.41316   0.69597   0.00000 
H          H       0.42206   0.64863   0.00000 
C          C       0.51902   0.97709   0.00000 
C          C       0.54196   0.01977   0.00000 
C          C       0.52411   0.04486   0.00000 
C          C       0.45241   0.91148   0.00000 
C          C       0.59087   0.11034   0.00000 
C          C       0.61388   0.15298   0.00000 
C          C       0.59505   0.17673   0.00000 
C          C       0.55225   0.15618   0.00000 
C          C       0.52947   0.11351   0.00000 
N          N       0.37990   0.78235   0.00000 
C          C       0.38942   0.75241   0.00000 
C          C       0.36091   0.70990   0.00000 
C          C       0.31809   0.69354   0.00000 
H          H       0.53555   0.96278   0.00000 
H          H       0.57258   0.03167   0.00000 
H          H       0.60740   0.09604   0.00000 
H          H       0.64491   0.16668   0.00000 
H          H       0.53691   0.17181   0.00000 
H          H       0.49887   0.10160   0.00000 
H          H       0.41954   0.76137   0.00000 
O          O       0.30403   0.71718   0.00000 
H          H       0.35137   0.77342   0.00000 
C          C       0.97709   0.45807   0.50000 
C          C       0.01977   0.47781   0.50000 
C          C       0.04486   0.52075   0.50000 
C          C       0.91148   0.45907   0.50000 
C          C       0.11034   0.51947   0.50000 
C          C       0.15298   0.53909   0.50000 
C          C       0.17673   0.58168   0.50000 
C          C       0.15618   0.60393   0.50000 
C          C       0.11351   0.58404   0.50000 
N          N       0.78235   0.40244   0.50000 
C          C       0.75241   0.36299   0.50000 
C          C       0.70990   0.34899   0.50000 
C          C       0.69354   0.37545   0.50000 
H          H       0.96278   0.42723   0.50000 
H          H       0.03167   0.45909   0.50000 
H          H       0.09604   0.48865   0.50000 
H          H       0.16668   0.52177   0.50000 
H          H       0.17181   0.63490   0.50000 
H          H       0.10160   0.60273   0.50000 
H          H       0.76137   0.34183   0.50000 
O          O       0.71718   0.41316   0.50000 
H          H       0.77342   0.42206   0.50000 
C          C       0.54193   0.51902   0.50000 
C          C       0.52219   0.54196   0.50000 
C          C       0.47925   0.52411   0.50000 
C          C       0.54093   0.45241   0.50000 
C          C       0.48053   0.59087   0.50000 
C          C       0.46091   0.61388   0.50000 
C          C       0.41832   0.59505   0.50000 
C          C       0.39607   0.55225   0.50000 
C          C       0.41596   0.52947   0.50000 
N          N       0.59756   0.37990   0.50000 
C          C       0.63701   0.38942   0.50000 
C          C       0.65101   0.36091   0.50000 
C          C       0.62455   0.31809   0.50000 
H          H       0.57277   0.53555   0.50000 
H          H       0.54091   0.57258   0.50000 
H          H       0.51135   0.60740   0.50000 
H          H       0.47823   0.64491   0.50000 
H          H       0.36510   0.53691   0.50000 
H          H       0.39727   0.49887   0.50000 
H          H       0.65817   0.41954   0.50000 
O          O       0.58684   0.30403   0.50000 
H          H       0.57794   0.35137   0.50000 
C          C       0.48098   0.02291   0.50000 
C          C       0.45804   0.98023   0.50000 
C          C       0.47589   0.95514   0.50000 
C          C       0.54759   0.08852   0.50000 
C          C       0.40913   0.88966   0.50000 
C          C       0.38612   0.84702   0.50000 
C          C       0.40495   0.82327   0.50000 
C          C       0.44775   0.84382   0.50000 
C          C       0.47053   0.88649   0.50000 
N          N       0.62010   0.21765   0.50000 
C          C       0.61059   0.24759   0.50000 
C          C       0.63909   0.29010   0.50000 
C          C       0.68191   0.30646   0.50000 
H          H       0.46445   0.03722   0.50000 
H          H       0.42742   0.96833   0.50000 
H          H       0.39260   0.90396   0.50000 
H          H       0.35509   0.83332   0.50000 
H          H       0.46309   0.82819   0.50000 
H          H       0.50113   0.89841   0.50000 
H          H       0.58046   0.23863   0.50000 
O          O       0.69597   0.28282   0.50000 
H          H       0.64863   0.22658   0.50000 
C          C       0.02291   0.54193   0.50000 
C          C       0.98023   0.52219   0.50000 
C          C       0.95514   0.47925   0.50000 
C          C       0.08852   0.54093   0.50000 
C          C       0.88966   0.48053   0.50000 
C          C       0.84702   0.46091   0.50000 
C          C       0.82327   0.41832   0.50000 
C          C       0.84382   0.39607   0.50000 
C          C       0.88649   0.41596   0.50000 
N          N       0.21765   0.59756   0.50000 
C          C       0.24759   0.63701   0.50000 
C          C       0.29010   0.65101   0.50000 
C          C       0.30646   0.62455   0.50000 
H          H       0.03722   0.57277   0.50000 
H          H       0.96833   0.54091   0.50000 
H          H       0.90396   0.51135   0.50000 
H          H       0.83332   0.47823   0.50000 
H          H       0.82819   0.36510   0.50000 
H          H       0.89841   0.39727   0.50000 
H          H       0.23863   0.65817   0.50000 
O          O       0.28282   0.58684   0.50000 
H          H       0.22658   0.57794   0.50000 
C          C       0.45807   0.48098   0.50000 
C          C       0.47781   0.45804   0.50000 
C          C       0.52075   0.47589   0.50000 
C          C       0.45907   0.54759   0.50000 
C          C       0.51947   0.40913   0.50000 
C          C       0.53909   0.38612   0.50000 
C          C       0.58168   0.40495   0.50000 
C          C       0.60393   0.44775   0.50000 
C          C       0.58404   0.47053   0.50000 
N          N       0.40244   0.62010   0.50000 
C          C       0.36299   0.61059   0.50000 
C          C       0.34899   0.63909   0.50000 
C          C       0.37545   0.68191   0.50000 
H          H       0.42723   0.46445   0.50000 
H          H       0.45909   0.42742   0.50000 
H          H       0.48865   0.39260   0.50000 
H          H       0.52177   0.35509   0.50000 
H          H       0.63490   0.46309   0.50000 
H          H       0.60273   0.50113   0.50000 
H          H       0.34183   0.58046   0.50000 
O          O       0.41316   0.69597   0.50000 
H          H       0.42206   0.64863   0.50000 
C          C       0.51902   0.97709   0.50000 
C          C       0.54196   0.01977   0.50000 
C          C       0.52411   0.04486   0.50000 
C          C       0.45241   0.91148   0.50000 
C          C       0.59087   0.11034   0.50000 
C          C       0.61388   0.15298   0.50000 
C          C       0.59505   0.17673   0.50000 
C          C       0.55225   0.15618   0.50000 
C          C       0.52947   0.11351   0.50000 
N          N       0.37990   0.78235   0.50000 
C          C       0.38942   0.75241   0.50000 
C          C       0.36091   0.70990   0.50000 
C          C       0.31809   0.69354   0.50000 
H          H       0.53555   0.96278   0.50000 
H          H       0.57258   0.03167   0.50000 
H          H       0.60740   0.09604   0.50000 
H          H       0.64491   0.16668   0.50000 
H          H       0.53691   0.17181   0.50000 
H          H       0.49887   0.10160   0.50000 
H          H       0.41954   0.76137   0.50000 
O          O       0.30403   0.71718   0.50000 
H          H       0.35137   0.77342   0.50000 
