data_crystal
 
_cell_length_a    37.09800
_cell_length_b    36.80160
_cell_length_c    8.06800
_cell_angle_alpha 89.93330
_cell_angle_beta  90.10050
_cell_angle_gamma 89.90380
 
_symmetry_space_group_name_Hall 'P 1'
_symmetry_space_group_name_H-M  'P 1'
 
loop_
_symmetry_equiv_pos_as_xyz
 'x,y,z' 
 
loop_
_atom_site_label
_atom_site_type_symbol
_atom_site_fract_x
_atom_site_fract_y
_atom_site_fract_z
C          C       0.27292   0.88133   0.98764 
C          C       0.24301   0.90707   0.97153 
N          N       0.25933   0.84708   0.01199 
C          C       0.21222   0.88827   0.00258 
H          H       0.24425   0.93601   0.93979 
C          C       0.22247   0.85010   0.02067 
H          H       0.18528   0.90035   0.00904 
C          C       0.19772   0.82071   0.03602 
C          C       0.20852   0.78344   0.02873 
C          C       0.18528   0.75225   0.02644 
N          N       0.24325   0.77012   0.02263 
C          C       0.20648   0.72154   0.02860 
H          H       0.15581   0.75202   0.02038 
C          C       0.24351   0.73262   0.02188 
H          H       0.19620   0.69374   0.03494 
C          C       0.37137   0.71338   0.02404 
C          C       0.34066   0.69424   0.99625 
C          C       0.31065   0.72005   0.00665 
N          N       0.32412   0.75451   0.02322 
H          H       0.39830   0.70140   0.03516 
H          H       0.33973   0.66504   0.96981 
C          C       0.38581   0.78097   0.04128 
C          C       0.37513   0.81816   0.02985 
C          C       0.39832   0.84932   0.02692 
N          N       0.34039   0.83129   0.01770 
C          C       0.37704   0.87994   0.02044 
H          H       0.42782   0.84950   0.02710 
C          C       0.34005   0.86873   0.00965 
H          H       0.38733   0.90777   0.02439 
C          C       0.30974   0.89226   0.99000 
C          C       0.27388   0.70900   0.01213 
C          C       0.36099   0.75164   0.03284 
H          H       0.26588   0.78655   0.02061 
H          H       0.31787   0.81473   0.01418 
C          C       0.15821   0.82699   0.05577 
C          C       0.13842   0.80431   0.16437 
C          C       0.13816   0.85287   0.96393 
C          C       0.10086   0.80430   0.16663 
H          H       0.15266   0.78588   0.24964 
C          C       0.10066   0.85529   0.97631 
H          H       0.15150   0.87043   0.87242 
C          C       0.08136   0.82951   0.06979 
H          H       0.08657   0.78514   0.24799 
H          H       0.08600   0.87514   0.89952 
C          C       0.42524   0.77380   0.05602 
C          C       0.44320   0.74692   0.96164 
C          C       0.44675   0.79542   0.16199 
C          C       0.48045   0.74188   0.97216 
H          H       0.42833   0.73056   0.87037 
C          C       0.48424   0.79285   0.16184 
H          H       0.43403   0.81473   0.24799 
C          C       0.50162   0.76614   0.06548 
H          H       0.49357   0.72117   0.89463 
H          H       0.50012   0.81106   0.24157 
C          C       0.31784   0.93190   0.97848 
C          C       0.34577   0.94531   0.87604 
C          C       0.29831   0.95761   0.07271 
C          C       0.35479   0.98208   0.87273 
H          H       0.36052   0.92674   0.79357 
C          C       0.30508   0.99479   0.05942 
H          H       0.27795   0.94854   0.16273 
C          C       0.33378   0.00748   0.96075 
H          H       0.37672   0.99157   0.79205 
H          H       0.28912   0.01409   0.13334 
C          C       0.26718   0.66907   0.01501 
C          C       0.28891   0.64657   0.11670 
C          C       0.24078   0.65183   0.91599 
C          C       0.28703   0.60883   0.10798 
H          H       0.30770   0.65879   0.20617 
C          C       0.23648   0.61413   0.91757 
H          H       0.22401   0.66780   0.82985 
C          C       0.26085   0.59211   0.00686 
H          H       0.30509   0.59216   0.18531 
H          H       0.21611   0.60145   0.83723 
C          C       0.55736   0.79129   0.00650 
H          H       0.54296   0.81602   0.95730 
C          C       0.28474   0.53408   0.95811 
H          H       0.31081   0.54604   0.91241 
C          C       0.28267   0.49423   0.96377 
C          C       0.30854   0.47259   0.88225 
C          C       0.25497   0.47674   0.05268 
C          C       0.30640   0.43475   0.88623 
H          H       0.33002   0.48562   0.80921 
C          C       0.25365   0.43900   0.06167 
H          H       0.23469   0.49317   0.11822 
C          C       0.27924   0.41711   0.97850 
H          H       0.32553   0.41892   0.81109 
H          H       0.23259   0.42630   0.13826 
C          C       0.27496   0.37698   0.98264 
C          C       0.23960   0.36384   0.97045 
C          C       0.30369   0.35139   0.99960 
C          C       0.23088   0.32674   0.96932 
H          H       0.21753   0.38377   0.96204 
C          C       0.29611   0.31318   0.99332 
C          C       0.34036   0.36257   0.02257 
C          C       0.25961   0.30088   0.97510 
C          C       0.19187   0.31784   0.96551 
C          C       0.32514   0.28717   0.00524 
C          C       0.36790   0.33788   0.03276 
H          H       0.34694   0.39162   0.03224 
C          C       0.25326   0.26252   0.96653 
C          C       0.16834   0.34061   0.87432 
C          C       0.17640   0.28952   0.06002 
C          C       0.31775   0.24901   0.99239 
C          C       0.36148   0.29943   0.02941 
H          H       0.39555   0.34835   0.04220 
C          C       0.28077   0.23789   0.98064 
H          H       0.22577   0.25216   0.94850 
C          C       0.13117   0.33594   0.88099 
H          H       0.17913   0.36227   0.79445 
C          C       0.13925   0.28377   0.06072 
H          H       0.19328   0.27255   0.14150 
C          C       0.34692   0.22349   0.99125 
C          C       0.38990   0.27339   0.04792 
H          H       0.27373   0.20890   0.98454 
C          C       0.11594   0.30730   0.97345 
H          H       0.11355   0.35442   0.81006 
H          H       0.12794   0.26161   0.13602 
C          C       0.38181   0.23647   0.02418 
C          C       0.34207   0.18408   0.95851 
C          C       0.42798   0.28333   0.08250 
H          H       0.40402   0.21668   0.03124 
C          C       0.31508   0.17097   0.84994 
C          C       0.36466   0.15794   0.03514 
C          C       0.43783   0.31240   0.18776 
C          C       0.45618   0.26325   0.00807 
C          C       0.30848   0.13389   0.83351 
H          H       0.29926   0.18986   0.77305 
C          C       0.35919   0.12081   0.01263 
H          H       0.38626   0.16653   0.12011 
C          C       0.47377   0.32273   0.20676 
H          H       0.41729   0.32682   0.26060 
C          C       0.49213   0.27264   0.03217 
H          H       0.45005   0.24051   0.92418 
C          C       0.33007   0.10804   0.91639 
H          H       0.28661   0.12479   0.75093 
H          H       0.37689   0.10119   0.07617 
C          C       0.50159   0.30319   0.12812 
H          H       0.48035   0.34584   0.28808 
H          H       0.51355   0.25679   0.97136 
N          N       0.25794   0.55406   0.00203 
N          N       0.53962   0.76383   0.06171 
C          C       0.82119   0.60049   0.88323 
C          C       0.79726   0.62472   0.80371 
C          C       0.84962   0.61528   0.97776 
C          C       0.80131   0.66220   0.81957 
H          H       0.77560   0.61403   0.72399 
C          C       0.85272   0.65271   0.99893 
H          H       0.86886   0.59696   0.03995 
C          C       0.82824   0.67715   0.92307 
H          H       0.78359   0.67997   0.74594 
H          H       0.87405   0.66298   0.08151 
C          C       0.83176   0.71691   0.95091 
C          C       0.86665   0.73136   0.96354 
C          C       0.80177   0.74108   0.96728 
C          C       0.87403   0.76858   0.98335 
H          H       0.88949   0.71232   0.95663 
C          C       0.80794   0.77939   0.98406 
C          C       0.76523   0.72831   0.96861 
C          C       0.84416   0.79322   0.98889 
C          C       0.91275   0.77903   0.99318 
C          C       0.77767   0.80397   0.99438 
C          C       0.73653   0.75169   0.97306 
H          H       0.75961   0.69900   0.96622 
C          C       0.84888   0.83181   0.00105 
C          C       0.93822   0.75817   0.90374 
C          C       0.92641   0.80763   0.09218 
C          C       0.78372   0.84235   0.00926 
C          C       0.74147   0.79016   0.98835 
H          H       0.70921   0.74029   0.96587 
C          C       0.82023   0.85498   0.01793 
H          H       0.87601   0.84365   0.99732 
C          C       0.97499   0.76511   0.91476 
H          H       0.92933   0.73627   0.82047 
C          C       0.96315   0.81591   0.09612 
H          H       0.90846   0.82306   0.17471 
C          C       0.75373   0.86674   0.01272 
C          C       0.71170   0.81468   0.99841 
H          H       0.82581   0.88398   0.03762 
C          C       0.98830   0.79449   0.00881 
H          H       0.99389   0.74795   0.84426 
H          H       0.97261   0.83847   0.17428 
C          C       0.71886   0.85204   0.00945 
C          C       0.75646   0.90699   0.01603 
C          C       0.67287   0.80460   0.99391 
H          H       0.69582   0.87087   0.01475 
C          C       0.78232   0.92647   0.92308 
C          C       0.73087   0.92728   0.10708 
C          C       0.65749   0.77568   0.08483 
C          C       0.64926   0.82734   0.90299 
C          C       0.78368   0.96429   0.92821 
H          H       0.80097   0.91213   0.83967 
C          C       0.73120   0.96514   0.10631 
H          H       0.71061   0.91332   0.18372 
C          C       0.62029   0.76980   0.08508 
H          H       0.67450   0.75829   0.16398 
C          C       0.61214   0.82238   0.90841 
H          H       0.66003   0.84932   0.82487 
C          C       0.75810   0.98432   0.01960 
H          H       0.80428   0.97884   0.85604 
H          H       0.71089   0.98008   0.17891 
C          C       0.59685   0.79357   0.99972 
H          H       0.60912   0.74731   0.15875 
H          H       0.59450   0.84097   0.83810 
C          C       0.53973   0.31375   0.14349 
H          H       0.54594   0.34039   0.20563 
C          C       0.02754   0.79978   0.01553 
H          H       0.04369   0.77599   0.96847 
N          N       0.04329   0.82883   0.06665 
N          N       0.56425   0.29252   0.08724 
C          C       0.78567   0.36893   0.94429 
C          C       0.75340   0.39136   0.92373 
N          N       0.77557   0.33369   0.97454 
C          C       0.72465   0.36983   0.95895 
H          H       0.75182   0.41997   0.88632 
C          C       0.73865   0.33307   0.98450 
H          H       0.69667   0.37921   0.96196 
C          C       0.71709   0.30147   0.00830 
C          C       0.73120   0.26534   0.00016 
C          C       0.71057   0.23232   0.99934 
N          N       0.76684   0.25495   0.98911 
C          C       0.73418   0.20348   0.99679 
H          H       0.68121   0.22958   0.99702 
C          C       0.77012   0.21761   0.98642 
H          H       0.72618   0.17492   0.00326 
C          C       0.89865   0.21068   0.00309 
C          C       0.87034   0.18835   0.97097 
C          C       0.83785   0.21096   0.97405 
N          N       0.84754   0.24671   0.99087 
H          H       0.92652   0.20163   0.02134 
H          H       0.87244   0.15910   0.94736 
C          C       0.90609   0.27949   0.01448 
C          C       0.89232   0.31556   0.99886 
C          C       0.91289   0.34854   0.99413 
N          N       0.85670   0.32570   0.98265 
C          C       0.88924   0.37726   0.98194 
H          H       0.94226   0.35121   0.99708 
C          C       0.85338   0.36294   0.97018 
H          H       0.89717   0.40588   0.98243 
C          C       0.82118   0.38352   0.94679 
C          C       0.80229   0.19656   0.97446 
C          C       0.88436   0.24774   0.00650 
H          H       0.78817   0.27303   0.98537 
H          H       0.83548   0.30749   0.97940 
C          C       0.67754   0.30377   0.03944 
C          C       0.66188   0.27920   0.15389 
C          C       0.65361   0.32727   0.95448 
C          C       0.62474   0.27550   0.17050 
H          H       0.67931   0.26210   0.23203 
C          C       0.61641   0.32605   0.98090 
H          H       0.66340   0.34577   0.85757 
C          C       0.60135   0.29918   0.08436 
H          H       0.61368   0.25531   0.25713 
H          H       0.59862   0.34437   0.91025 
C          C       0.94595   0.27600   0.03014 
C          C       0.96602   0.25077   0.93546 
C          C       0.96547   0.29956   0.13556 
C          C       0.00353   0.24896   0.94592 
H          H       0.95250   0.23319   0.84447 
C          C       0.00304   0.30023   0.13535 
H          H       0.95114   0.31781   0.22099 
C          C       0.02249   0.27498   0.03928 
H          H       0.01842   0.22948   0.86854 
H          H       0.01740   0.31977   0.21464 
C          C       0.82538   0.42374   0.93437 
C          C       0.85208   0.43986   0.83327 
C          C       0.80320   0.44735   0.02774 
C          C       0.85749   0.47736   0.83071 
H          H       0.86875   0.42286   0.75152 
C          C       0.80645   0.48502   0.01567 
H          H       0.78353   0.43622   0.11620 
C          C       0.83403   0.50052   0.91856 
H          H       0.87857   0.48903   0.75115 
H          H       0.78866   0.50262   0.08961 
C          C       0.79798   0.15630   0.97317 
C          C       0.81993   0.13392   0.07443 
C          C       0.77179   0.13895   0.87346 
C          C       0.81723   0.09617   0.07026 
H          H       0.83904   0.14616   0.16249 
C          C       0.76665   0.10141   0.87970 
H          H       0.75546   0.15478   0.78508 
C          C       0.78973   0.07953   0.97675 
H          H       0.83477   0.07946   0.14977 
H          H       0.74583   0.08872   0.80165 
C          C       0.07658   0.30387   0.97977 
H          H       0.06103   0.32779   0.92974 
C          C       0.75941   0.02423   0.02505 
H          H       0.73536   0.03856   0.07938 
C          C       0.32147   0.06913   0.90504 
H          H       0.29474   0.06220   0.84714 
N          N       0.78738   0.04146   0.97443 
N          N       0.34305   0.04451   0.95946 
N          N       0.06047   0.27550   0.03577 
N          N       0.83989   0.53825   0.91905 
C          C       0.81585   0.56101   0.86979 
H          H       0.78952   0.55191   0.81429 
C          C       0.27292   0.88133   0.48764 
C          C       0.24301   0.90707   0.47153 
N          N       0.25933   0.84708   0.51199 
C          C       0.21222   0.88827   0.50258 
H          H       0.24425   0.93601   0.43979 
C          C       0.22247   0.85010   0.52067 
H          H       0.18528   0.90035   0.50904 
C          C       0.19772   0.82071   0.53602 
C          C       0.20852   0.78344   0.52873 
C          C       0.18528   0.75225   0.52644 
N          N       0.24325   0.77012   0.52263 
C          C       0.20648   0.72154   0.52860 
H          H       0.15581   0.75202   0.52038 
C          C       0.24351   0.73262   0.52188 
H          H       0.19620   0.69374   0.53494 
C          C       0.37137   0.71338   0.52404 
C          C       0.34066   0.69424   0.49625 
C          C       0.31065   0.72005   0.50665 
N          N       0.32412   0.75451   0.52322 
H          H       0.39830   0.70140   0.53516 
H          H       0.33973   0.66504   0.46981 
C          C       0.38581   0.78097   0.54128 
C          C       0.37513   0.81816   0.52985 
C          C       0.39832   0.84932   0.52692 
N          N       0.34039   0.83129   0.51770 
C          C       0.37704   0.87994   0.52044 
H          H       0.42782   0.84950   0.52710 
C          C       0.34005   0.86873   0.50965 
H          H       0.38733   0.90777   0.52439 
C          C       0.30974   0.89226   0.49000 
C          C       0.27388   0.70900   0.51213 
C          C       0.36099   0.75164   0.53284 
H          H       0.26588   0.78655   0.52061 
H          H       0.31787   0.81473   0.51418 
C          C       0.15821   0.82699   0.55577 
C          C       0.13842   0.80431   0.66437 
C          C       0.13816   0.85287   0.46393 
C          C       0.10086   0.80430   0.66663 
H          H       0.15266   0.78588   0.74964 
C          C       0.10066   0.85529   0.47631 
H          H       0.15150   0.87043   0.37242 
C          C       0.08136   0.82951   0.56979 
H          H       0.08657   0.78514   0.74799 
H          H       0.08600   0.87514   0.39952 
C          C       0.42524   0.77380   0.55602 
C          C       0.44320   0.74692   0.46164 
C          C       0.44675   0.79542   0.66199 
C          C       0.48045   0.74188   0.47216 
H          H       0.42833   0.73056   0.37037 
C          C       0.48424   0.79285   0.66184 
H          H       0.43403   0.81473   0.74799 
C          C       0.50162   0.76614   0.56548 
H          H       0.49357   0.72117   0.39463 
H          H       0.50012   0.81106   0.74157 
C          C       0.31784   0.93190   0.47848 
C          C       0.34577   0.94531   0.37604 
C          C       0.29831   0.95761   0.57271 
C          C       0.35479   0.98208   0.37273 
H          H       0.36052   0.92674   0.29357 
C          C       0.30508   0.99479   0.55942 
H          H       0.27795   0.94854   0.66273 
C          C       0.33378   0.00748   0.46075 
H          H       0.37672   0.99157   0.29205 
H          H       0.28912   0.01409   0.63334 
C          C       0.26718   0.66907   0.51501 
C          C       0.28891   0.64657   0.61670 
C          C       0.24078   0.65183   0.41599 
C          C       0.28703   0.60883   0.60798 
H          H       0.30770   0.65879   0.70617 
C          C       0.23648   0.61413   0.41757 
H          H       0.22401   0.66780   0.32985 
C          C       0.26085   0.59211   0.50686 
H          H       0.30509   0.59216   0.68531 
H          H       0.21611   0.60145   0.33723 
C          C       0.55736   0.79129   0.50650 
H          H       0.54296   0.81602   0.45730 
C          C       0.28474   0.53408   0.45811 
H          H       0.31081   0.54604   0.41241 
C          C       0.28267   0.49423   0.46377 
C          C       0.30854   0.47259   0.38225 
C          C       0.25497   0.47674   0.55268 
C          C       0.30640   0.43475   0.38623 
H          H       0.33002   0.48562   0.30921 
C          C       0.25365   0.43900   0.56167 
H          H       0.23469   0.49317   0.61822 
C          C       0.27924   0.41711   0.47850 
H          H       0.32553   0.41892   0.31109 
H          H       0.23259   0.42630   0.63826 
C          C       0.27496   0.37698   0.48264 
C          C       0.23960   0.36384   0.47045 
C          C       0.30369   0.35139   0.49960 
C          C       0.23088   0.32674   0.46932 
H          H       0.21753   0.38377   0.46204 
C          C       0.29611   0.31318   0.49332 
C          C       0.34036   0.36257   0.52257 
C          C       0.25961   0.30088   0.47510 
C          C       0.19187   0.31784   0.46551 
C          C       0.32514   0.28717   0.50524 
C          C       0.36790   0.33788   0.53276 
H          H       0.34694   0.39162   0.53224 
C          C       0.25326   0.26252   0.46653 
C          C       0.16834   0.34061   0.37432 
C          C       0.17640   0.28952   0.56002 
C          C       0.31775   0.24901   0.49239 
C          C       0.36148   0.29943   0.52941 
H          H       0.39555   0.34835   0.54220 
C          C       0.28077   0.23789   0.48064 
H          H       0.22577   0.25216   0.44850 
C          C       0.13117   0.33594   0.38099 
H          H       0.17913   0.36227   0.29445 
C          C       0.13925   0.28377   0.56072 
H          H       0.19328   0.27255   0.64150 
C          C       0.34692   0.22349   0.49125 
C          C       0.38990   0.27339   0.54792 
H          H       0.27373   0.20890   0.48454 
C          C       0.11594   0.30730   0.47345 
H          H       0.11355   0.35442   0.31006 
H          H       0.12794   0.26161   0.63602 
C          C       0.38181   0.23647   0.52418 
C          C       0.34207   0.18408   0.45851 
C          C       0.42798   0.28333   0.58250 
H          H       0.40402   0.21668   0.53124 
C          C       0.31508   0.17097   0.34994 
C          C       0.36466   0.15794   0.53514 
C          C       0.43783   0.31240   0.68776 
C          C       0.45618   0.26325   0.50807 
C          C       0.30848   0.13389   0.33351 
H          H       0.29926   0.18986   0.27305 
C          C       0.35919   0.12081   0.51263 
H          H       0.38626   0.16653   0.62011 
C          C       0.47377   0.32273   0.70676 
H          H       0.41729   0.32682   0.76060 
C          C       0.49213   0.27264   0.53217 
H          H       0.45005   0.24051   0.42418 
C          C       0.33007   0.10804   0.41639 
H          H       0.28661   0.12479   0.25093 
H          H       0.37689   0.10119   0.57617 
C          C       0.50159   0.30319   0.62812 
H          H       0.48035   0.34584   0.78808 
H          H       0.51355   0.25679   0.47136 
N          N       0.25794   0.55406   0.50203 
N          N       0.53962   0.76383   0.56171 
C          C       0.82119   0.60049   0.38323 
C          C       0.79726   0.62472   0.30371 
C          C       0.84962   0.61528   0.47776 
C          C       0.80131   0.66220   0.31957 
H          H       0.77560   0.61403   0.22399 
C          C       0.85272   0.65271   0.49893 
H          H       0.86886   0.59696   0.53995 
C          C       0.82824   0.67715   0.42307 
H          H       0.78359   0.67997   0.24594 
H          H       0.87405   0.66298   0.58151 
C          C       0.83176   0.71691   0.45091 
C          C       0.86665   0.73136   0.46354 
C          C       0.80177   0.74108   0.46728 
C          C       0.87403   0.76858   0.48335 
H          H       0.88949   0.71232   0.45663 
C          C       0.80794   0.77939   0.48406 
C          C       0.76523   0.72831   0.46861 
C          C       0.84416   0.79322   0.48889 
C          C       0.91275   0.77903   0.49318 
C          C       0.77767   0.80397   0.49438 
C          C       0.73653   0.75169   0.47306 
H          H       0.75961   0.69900   0.46622 
C          C       0.84888   0.83181   0.50105 
C          C       0.93822   0.75817   0.40374 
C          C       0.92641   0.80763   0.59218 
C          C       0.78372   0.84235   0.50926 
C          C       0.74147   0.79016   0.48835 
H          H       0.70921   0.74029   0.46587 
C          C       0.82023   0.85498   0.51793 
H          H       0.87601   0.84365   0.49732 
C          C       0.97499   0.76511   0.41476 
H          H       0.92933   0.73627   0.32047 
C          C       0.96315   0.81591   0.59612 
H          H       0.90846   0.82306   0.67471 
C          C       0.75373   0.86674   0.51272 
C          C       0.71170   0.81468   0.49841 
H          H       0.82581   0.88398   0.53762 
C          C       0.98830   0.79449   0.50881 
H          H       0.99389   0.74795   0.34426 
H          H       0.97261   0.83847   0.67428 
C          C       0.71886   0.85204   0.50945 
C          C       0.75646   0.90699   0.51603 
C          C       0.67287   0.80460   0.49391 
H          H       0.69582   0.87087   0.51475 
C          C       0.78232   0.92647   0.42308 
C          C       0.73087   0.92728   0.60708 
C          C       0.65749   0.77568   0.58483 
C          C       0.64926   0.82734   0.40299 
C          C       0.78368   0.96429   0.42821 
H          H       0.80097   0.91213   0.33967 
C          C       0.73120   0.96514   0.60631 
H          H       0.71061   0.91332   0.68372 
C          C       0.62029   0.76980   0.58508 
H          H       0.67450   0.75829   0.66398 
C          C       0.61214   0.82238   0.40841 
H          H       0.66003   0.84932   0.32487 
C          C       0.75810   0.98432   0.51960 
H          H       0.80428   0.97884   0.35604 
H          H       0.71089   0.98008   0.67891 
C          C       0.59685   0.79357   0.49972 
H          H       0.60912   0.74731   0.65875 
H          H       0.59450   0.84097   0.33810 
C          C       0.53973   0.31375   0.64349 
H          H       0.54594   0.34039   0.70563 
C          C       0.02754   0.79978   0.51553 
H          H       0.04369   0.77599   0.46847 
N          N       0.04329   0.82883   0.56665 
N          N       0.56425   0.29252   0.58724 
C          C       0.78567   0.36893   0.44429 
C          C       0.75340   0.39136   0.42373 
N          N       0.77557   0.33369   0.47454 
C          C       0.72465   0.36983   0.45895 
H          H       0.75182   0.41997   0.38632 
C          C       0.73865   0.33307   0.48450 
H          H       0.69667   0.37921   0.46196 
C          C       0.71709   0.30147   0.50830 
C          C       0.73120   0.26534   0.50016 
C          C       0.71057   0.23232   0.49934 
N          N       0.76684   0.25495   0.48911 
C          C       0.73418   0.20348   0.49679 
H          H       0.68121   0.22958   0.49702 
C          C       0.77012   0.21761   0.48642 
H          H       0.72618   0.17492   0.50326 
C          C       0.89865   0.21068   0.50309 
C          C       0.87034   0.18835   0.47097 
C          C       0.83785   0.21096   0.47405 
N          N       0.84754   0.24671   0.49087 
H          H       0.92652   0.20163   0.52134 
H          H       0.87244   0.15910   0.44736 
C          C       0.90609   0.27949   0.51448 
C          C       0.89232   0.31556   0.49886 
C          C       0.91289   0.34854   0.49413 
N          N       0.85670   0.32570   0.48265 
C          C       0.88924   0.37726   0.48194 
H          H       0.94226   0.35121   0.49708 
C          C       0.85338   0.36294   0.47018 
H          H       0.89717   0.40588   0.48243 
C          C       0.82118   0.38352   0.44679 
C          C       0.80229   0.19656   0.47446 
C          C       0.88436   0.24774   0.50650 
H          H       0.78817   0.27303   0.48537 
H          H       0.83548   0.30749   0.47940 
C          C       0.67754   0.30377   0.53944 
C          C       0.66188   0.27920   0.65389 
C          C       0.65361   0.32727   0.45448 
C          C       0.62474   0.27550   0.67050 
H          H       0.67931   0.26210   0.73203 
C          C       0.61641   0.32605   0.48090 
H          H       0.66340   0.34577   0.35757 
C          C       0.60135   0.29918   0.58436 
H          H       0.61368   0.25531   0.75713 
H          H       0.59862   0.34437   0.41025 
C          C       0.94595   0.27600   0.53014 
C          C       0.96602   0.25077   0.43546 
C          C       0.96547   0.29956   0.63556 
C          C       0.00353   0.24896   0.44592 
H          H       0.95250   0.23319   0.34447 
C          C       0.00304   0.30023   0.63535 
H          H       0.95114   0.31781   0.72099 
C          C       0.02249   0.27498   0.53928 
H          H       0.01842   0.22948   0.36854 
H          H       0.01740   0.31977   0.71464 
C          C       0.82538   0.42374   0.43437 
C          C       0.85208   0.43986   0.33327 
C          C       0.80320   0.44735   0.52774 
C          C       0.85749   0.47736   0.33071 
H          H       0.86875   0.42286   0.25152 
C          C       0.80645   0.48502   0.51567 
H          H       0.78353   0.43622   0.61620 
C          C       0.83403   0.50052   0.41856 
H          H       0.87857   0.48903   0.25115 
H          H       0.78866   0.50262   0.58961 
C          C       0.79798   0.15630   0.47317 
C          C       0.81993   0.13392   0.57443 
C          C       0.77179   0.13895   0.37346 
C          C       0.81723   0.09617   0.57026 
H          H       0.83904   0.14616   0.66249 
C          C       0.76665   0.10141   0.37970 
H          H       0.75546   0.15478   0.28508 
C          C       0.78973   0.07953   0.47675 
H          H       0.83477   0.07946   0.64977 
H          H       0.74583   0.08872   0.30165 
C          C       0.07658   0.30387   0.47977 
H          H       0.06103   0.32779   0.42974 
C          C       0.75941   0.02423   0.52505 
H          H       0.73536   0.03856   0.57938 
C          C       0.32147   0.06913   0.40504 
H          H       0.29474   0.06220   0.34714 
N          N       0.78738   0.04146   0.47443 
N          N       0.34305   0.04451   0.45946 
N          N       0.06047   0.27550   0.53577 
N          N       0.83989   0.53825   0.41905 
C          C       0.81585   0.56101   0.36979 
H          H       0.78952   0.55191   0.31429 
