data_crystal
 
_cell_length_a    36.85660
_cell_length_b    36.85660
_cell_length_c    7.65580
_cell_angle_alpha 90.00000
_cell_angle_beta  90.00000
_cell_angle_gamma 120.00000
 
_space_group_name_Hall 'P 1'
_space_group_name_H-M_alt  'P 1'
 
loop_
_symmetry_equiv_pos_as_xyz
 'x,y,z' 
 
loop_
_atom_site_label
_atom_site_type_symbol
_atom_site_fract_x
_atom_site_fract_y
_atom_site_fract_z
C          C       0.28959   0.64175   0.26903 
C          C       0.31471   0.62338   0.26897 
C          C       0.24388   0.61574   0.27030 
C          C       0.37015   0.58897   0.19183 
C          C       0.39438   0.57007   0.19391 
C          C       0.43378   0.59007   0.27560 
C          C       0.44844   0.62966   0.35121 
C          C       0.42385   0.64813   0.34970 
N          N       0.45989   0.57300   0.27732 
C          C       0.44487   0.53331   0.28036 
C          C       0.47234   0.51574   0.27757 
C          C       0.45648   0.47206   0.27717 
C          C       0.48449   0.45717   0.27685 
S          S       0.40216   0.43830   0.27642 
C          C       0.60417   0.61346   0.27930 
H          H       0.30007   0.58935   0.26915 
H          H       0.33984   0.57325   0.12501 
H          H       0.38311   0.53994   0.12822 
H          H       0.47897   0.64533   0.41604 
H          H       0.43538   0.67852   0.41339 
H          H       0.41059   0.51095   0.28834 
H          H       0.47350   0.42370   0.27703 
H          H       0.59046   0.61945   0.16207 
H          H       0.63752   0.63611   0.28016 
H          H       0.59025   0.61875   0.39759 
C          C       0.35825   0.64784   0.26903 
C          C       0.37662   0.69133   0.26897 
C          C       0.38426   0.62814   0.27030 
C          C       0.41103   0.78118   0.19183 
C          C       0.42993   0.82431   0.19391 
C          C       0.40993   0.84371   0.27560 
C          C       0.37034   0.81878   0.35121 
C          C       0.35187   0.77572   0.34970 
N          N       0.42700   0.88689   0.27732 
C          C       0.46669   0.91156   0.28036 
C          C       0.48426   0.95660   0.27757 
C          C       0.52794   0.98442   0.27717 
C          C       0.54283   0.02732   0.27685 
S          S       0.56170   0.96386   0.27642 
C          C       0.38654   0.99071   0.27930 
H          H       0.41065   0.71072   0.26915 
H          H       0.42675   0.76659   0.12501 
H          H       0.46006   0.84317   0.12822 
H          H       0.35467   0.83364   0.41604 
H          H       0.32148   0.75686   0.41339 
H          H       0.48905   0.89964   0.28834 
H          H       0.57630   0.04980   0.27703 
H          H       0.38055   0.97101   0.16207 
H          H       0.36389   0.00141   0.28016 
H          H       0.38125   0.97150   0.39759 
C          C       0.35216   0.71041   0.26903 
C          C       0.30867   0.68529   0.26897 
C          C       0.37186   0.75612   0.27030 
C          C       0.21882   0.62985   0.19183 
C          C       0.17569   0.60562   0.19391 
C          C       0.15629   0.56622   0.27560 
C          C       0.18122   0.55156   0.35121 
C          C       0.22428   0.57615   0.34970 
N          N       0.11311   0.54011   0.27732 
C          C       0.08844   0.55513   0.28036 
C          C       0.04340   0.52766   0.27757 
C          C       0.01558   0.54352   0.27717 
C          C       0.97268   0.51551   0.27685 
S          S       0.03614   0.59784   0.27642 
C          C       0.00929   0.39583   0.27930 
H          H       0.28928   0.69993   0.26915 
H          H       0.23341   0.66016   0.12501 
H          H       0.15683   0.61689   0.12822 
H          H       0.16636   0.52103   0.41604 
H          H       0.24314   0.56462   0.41339 
H          H       0.10036   0.58941   0.28834 
H          H       0.95020   0.52650   0.27703 
H          H       0.02899   0.40954   0.16207 
H          H       0.99859   0.36248   0.28016 
H          H       0.02850   0.40975   0.39759 
C          C       0.71041   0.35825   0.26903 
C          C       0.68529   0.37662   0.26897 
C          C       0.75612   0.38426   0.27030 
C          C       0.62985   0.41103   0.19183 
C          C       0.60562   0.42993   0.19391 
C          C       0.56622   0.40993   0.27560 
C          C       0.55156   0.37034   0.35121 
C          C       0.57615   0.35187   0.34970 
N          N       0.54011   0.42700   0.27732 
C          C       0.55513   0.46669   0.28036 
C          C       0.52766   0.48426   0.27757 
C          C       0.54352   0.52794   0.27717 
C          C       0.51551   0.54283   0.27685 
S          S       0.59784   0.56170   0.27642 
C          C       0.39583   0.38654   0.27930 
H          H       0.69993   0.41065   0.26915 
H          H       0.66016   0.42675   0.12501 
H          H       0.61689   0.46006   0.12822 
H          H       0.52103   0.35467   0.41604 
H          H       0.56462   0.32148   0.41339 
H          H       0.58941   0.48905   0.28834 
H          H       0.52650   0.57630   0.27703 
H          H       0.40954   0.38055   0.16207 
H          H       0.36248   0.36389   0.28016 
H          H       0.40975   0.38125   0.39759 
C          C       0.64175   0.35216   0.26903 
C          C       0.62338   0.30867   0.26897 
C          C       0.61574   0.37186   0.27030 
C          C       0.58897   0.21882   0.19183 
C          C       0.57007   0.17569   0.19391 
C          C       0.59007   0.15629   0.27560 
C          C       0.62966   0.18122   0.35121 
C          C       0.64813   0.22428   0.34970 
N          N       0.57300   0.11311   0.27732 
C          C       0.53331   0.08844   0.28036 
C          C       0.51574   0.04340   0.27757 
C          C       0.47206   0.01558   0.27717 
C          C       0.45717   0.97268   0.27685 
S          S       0.43830   0.03614   0.27642 
C          C       0.61346   0.00929   0.27930 
H          H       0.58935   0.28928   0.26915 
H          H       0.57325   0.23341   0.12501 
H          H       0.53994   0.15683   0.12822 
H          H       0.64533   0.16636   0.41604 
H          H       0.67852   0.24314   0.41339 
H          H       0.51095   0.10036   0.28834 
H          H       0.42370   0.95020   0.27703 
H          H       0.61945   0.02899   0.16207 
H          H       0.63611   0.99859   0.28016 
H          H       0.61875   0.02850   0.39759 
C          C       0.64784   0.28959   0.26903 
C          C       0.69133   0.31471   0.26897 
C          C       0.62814   0.24388   0.27030 
C          C       0.78118   0.37015   0.19183 
C          C       0.82431   0.39438   0.19391 
C          C       0.84371   0.43378   0.27560 
C          C       0.81878   0.44844   0.35121 
C          C       0.77572   0.42385   0.34970 
N          N       0.88689   0.45989   0.27732 
C          C       0.91156   0.44487   0.28036 
C          C       0.95660   0.47234   0.27757 
C          C       0.98442   0.45648   0.27717 
C          C       0.02732   0.48449   0.27685 
S          S       0.96386   0.40216   0.27642 
C          C       0.99071   0.60417   0.27930 
H          H       0.71072   0.30007   0.26915 
H          H       0.76659   0.33984   0.12501 
H          H       0.84317   0.38311   0.12822 
H          H       0.83364   0.47897   0.41604 
H          H       0.75686   0.43538   0.41339 
H          H       0.89964   0.41059   0.28834 
H          H       0.04980   0.47350   0.27703 
H          H       0.97101   0.59046   0.16207 
H          H       0.00141   0.63752   0.28016 
H          H       0.97150   0.59025   0.39759 
C          C       0.28959   0.64175   0.76902 
C          C       0.31471   0.62338   0.76897 
C          C       0.24388   0.61574   0.77030 
C          C       0.37015   0.58897   0.69183 
C          C       0.39438   0.57007   0.69391 
C          C       0.43378   0.59007   0.77560 
C          C       0.44844   0.62966   0.85121 
C          C       0.42385   0.64813   0.84970 
N          N       0.45989   0.57300   0.77732 
C          C       0.44487   0.53331   0.78037 
C          C       0.47234   0.51574   0.77757 
C          C       0.45648   0.47206   0.77717 
C          C       0.48449   0.45717   0.77685 
S          S       0.40216   0.43830   0.77641 
C          C       0.60417   0.61346   0.77930 
H          H       0.30007   0.58935   0.76916 
H          H       0.33984   0.57325   0.62501 
H          H       0.38311   0.53994   0.62822 
H          H       0.47897   0.64533   0.91604 
H          H       0.43538   0.67852   0.91339 
H          H       0.41059   0.51095   0.78834 
H          H       0.47350   0.42370   0.77703 
H          H       0.59046   0.61945   0.66207 
H          H       0.63752   0.63611   0.78016 
H          H       0.59025   0.61875   0.89760 
C          C       0.35825   0.64784   0.76902 
C          C       0.37662   0.69133   0.76897 
C          C       0.38426   0.62814   0.77030 
C          C       0.41103   0.78118   0.69183 
C          C       0.42993   0.82431   0.69391 
C          C       0.40993   0.84371   0.77560 
C          C       0.37034   0.81878   0.85121 
C          C       0.35187   0.77572   0.84970 
N          N       0.42700   0.88689   0.77732 
C          C       0.46669   0.91156   0.78037 
C          C       0.48426   0.95660   0.77757 
C          C       0.52794   0.98442   0.77717 
C          C       0.54283   0.02732   0.77685 
S          S       0.56170   0.96386   0.77641 
C          C       0.38654   0.99071   0.77930 
H          H       0.41065   0.71072   0.76916 
H          H       0.42675   0.76659   0.62501 
H          H       0.46006   0.84317   0.62822 
H          H       0.35467   0.83364   0.91604 
H          H       0.32148   0.75686   0.91339 
H          H       0.48905   0.89964   0.78834 
H          H       0.57630   0.04980   0.77703 
H          H       0.38055   0.97101   0.66207 
H          H       0.36389   0.00141   0.78016 
H          H       0.38125   0.97150   0.89760 
C          C       0.35216   0.71041   0.76902 
C          C       0.30867   0.68529   0.76897 
C          C       0.37186   0.75612   0.77030 
C          C       0.21882   0.62985   0.69183 
C          C       0.17569   0.60562   0.69391 
C          C       0.15629   0.56622   0.77560 
C          C       0.18122   0.55156   0.85121 
C          C       0.22428   0.57615   0.84970 
N          N       0.11311   0.54011   0.77732 
C          C       0.08844   0.55513   0.78037 
C          C       0.04340   0.52766   0.77757 
C          C       0.01558   0.54352   0.77717 
C          C       0.97268   0.51551   0.77685 
S          S       0.03614   0.59784   0.77641 
C          C       0.00929   0.39583   0.77930 
H          H       0.28928   0.69993   0.76916 
H          H       0.23341   0.66016   0.62501 
H          H       0.15683   0.61689   0.62822 
H          H       0.16636   0.52103   0.91604 
H          H       0.24314   0.56462   0.91339 
H          H       0.10036   0.58941   0.78834 
H          H       0.95020   0.52650   0.77703 
H          H       0.02899   0.40954   0.66207 
H          H       0.99859   0.36248   0.78016 
H          H       0.02850   0.40975   0.89760 
C          C       0.71041   0.35825   0.76902 
C          C       0.68529   0.37662   0.76897 
C          C       0.75612   0.38426   0.77030 
C          C       0.62985   0.41103   0.69183 
C          C       0.60562   0.42993   0.69391 
C          C       0.56622   0.40993   0.77560 
C          C       0.55156   0.37034   0.85121 
C          C       0.57615   0.35187   0.84970 
N          N       0.54011   0.42700   0.77732 
C          C       0.55513   0.46669   0.78037 
C          C       0.52766   0.48426   0.77757 
C          C       0.54352   0.52794   0.77717 
C          C       0.51551   0.54283   0.77685 
S          S       0.59784   0.56170   0.77641 
C          C       0.39583   0.38654   0.77930 
H          H       0.69993   0.41065   0.76916 
H          H       0.66016   0.42675   0.62501 
H          H       0.61689   0.46006   0.62822 
H          H       0.52103   0.35467   0.91604 
H          H       0.56462   0.32148   0.91339 
H          H       0.58941   0.48905   0.78834 
H          H       0.52650   0.57630   0.77703 
H          H       0.40954   0.38055   0.66207 
H          H       0.36248   0.36389   0.78016 
H          H       0.40975   0.38125   0.89760 
C          C       0.64175   0.35216   0.76902 
C          C       0.62338   0.30867   0.76897 
C          C       0.61574   0.37186   0.77030 
C          C       0.58897   0.21882   0.69183 
C          C       0.57007   0.17569   0.69391 
C          C       0.59007   0.15629   0.77560 
C          C       0.62966   0.18122   0.85121 
C          C       0.64813   0.22428   0.84970 
N          N       0.57300   0.11311   0.77732 
C          C       0.53331   0.08844   0.78037 
C          C       0.51574   0.04340   0.77757 
C          C       0.47206   0.01558   0.77717 
C          C       0.45717   0.97268   0.77685 
S          S       0.43830   0.03614   0.77641 
C          C       0.61346   0.00929   0.77930 
H          H       0.58935   0.28928   0.76916 
H          H       0.57325   0.23341   0.62501 
H          H       0.53994   0.15683   0.62822 
H          H       0.64533   0.16636   0.91604 
H          H       0.67852   0.24314   0.91339 
H          H       0.51095   0.10036   0.78834 
H          H       0.42370   0.95020   0.77703 
H          H       0.61945   0.02899   0.66207 
H          H       0.63611   0.99859   0.78016 
H          H       0.61875   0.02850   0.89760 
C          C       0.64784   0.28959   0.76902 
C          C       0.69133   0.31471   0.76897 
C          C       0.62814   0.24388   0.77030 
C          C       0.78118   0.37015   0.69183 
C          C       0.82431   0.39438   0.69391 
C          C       0.84371   0.43378   0.77560 
C          C       0.81878   0.44844   0.85121 
C          C       0.77572   0.42385   0.84970 
N          N       0.88689   0.45989   0.77732 
C          C       0.91156   0.44487   0.78037 
C          C       0.95660   0.47234   0.77757 
C          C       0.98442   0.45648   0.77717 
C          C       0.02732   0.48449   0.77685 
S          S       0.96386   0.40216   0.77641 
C          C       0.99071   0.60417   0.77930 
H          H       0.71072   0.30007   0.76916 
H          H       0.76659   0.33984   0.62501 
H          H       0.84317   0.38311   0.62822 
H          H       0.83364   0.47897   0.91604 
H          H       0.75686   0.43538   0.91339 
H          H       0.89964   0.41059   0.78834 
H          H       0.04980   0.47350   0.77703 
H          H       0.97101   0.59046   0.66207 
H          H       0.00141   0.63752   0.78016 
H          H       0.97150   0.59025   0.89760 
