data_crystal
 
_cell_length_a    25.83000
_cell_length_b    25.83000
_cell_length_c    8.20000
_cell_angle_alpha 90.00000
_cell_angle_beta  90.00000
_cell_angle_gamma 120.00000
 
_symmetry_space_group_name_Hall 'P 1'
_symmetry_space_group_name_H-M  'P 1'
 
loop_
_symmetry_equiv_pos_as_xyz
 'x,y,z' 
 
loop_
_atom_site_label
_atom_site_type_symbol
_atom_site_fract_x
_atom_site_fract_y
_atom_site_fract_z
H          H       0.10446   0.87203   0.35396 
H          H       0.21074   0.93070   0.39629 
H          H       0.20631   0.09535   0.35698 
H          H       0.10025   0.04065   0.30966 
H          H       0.91236   0.74403   0.33726 
H          H       0.93862   0.66995   0.25864 
H          H       0.10038   0.80728   0.02820 
H          H       0.07341   0.88393   0.09733 
H          H       0.65695   0.69282   0.21169 
H          H       0.61877   0.58847   0.25496 
H          H       0.76616   0.59438   0.48860 
H          H       0.80876   0.69969   0.44383 
H          H       0.69192   0.87530   0.15362 
H          H       0.59096   0.85372   0.08885 
H          H       0.54941   0.68237   0.38648 
H          H       0.64390   0.69838   0.44634 
H          H       0.91593   0.17084   0.07235 
H          H       0.84813   0.20182   0.14626 
H          H       0.72071   0.02789   0.33572 
H          H       0.78596   0.99053   0.27165 
H          H       0.06183   0.12438   0.44323 
H          H       0.12237   0.23226   0.42052 
H          H       0.00929   0.25383   0.27291 
H          H       0.95103   0.14163   0.30854 
H          H       0.65752   0.06075   0.29062 
H          H       0.16199   0.32753   0.38342 
H          H       0.27361   0.11829   0.05427 
H          H       0.11870   0.73894   0.48836 
H          H       0.72704   0.50512   0.05499 
H          H       0.47824   0.78641   0.12934 
H          H       0.39145   0.07672   0.41789 
H          H       0.49558   0.13444   0.49315 
H          H       0.45715   0.25212   0.27989 
H          H       0.35505   0.19647   0.19829 
H          H       0.22440   0.42139   0.24991 
H          H       0.25749   0.52598   0.19657 
H          H       0.13054   0.51971   0.05043 
H          H       0.09408   0.41450   0.09382 
H          H       0.64345   0.29625   0.49506 
H          H       0.70091   0.40426   0.46587 
H          H       0.58551   0.42113   0.31930 
H          H       0.53349   0.31433   0.36236 
H          H       0.50645   0.11021   0.23791 
H          H       0.56331   0.06139   0.27439 
H          H       0.72639   0.23239   0.28360 
H          H       0.67076   0.28221   0.24965 
H          H       0.30736   0.56814   0.44327 
H          H       0.40847   0.63568   0.01547 
H          H       0.38182   0.78651   0.44391 
H          H       0.27978   0.72002   0.37241 
H          H       0.25835   0.68671   0.13837 
H          H       0.20346   0.72974   0.01740 
H          H       0.04332   0.59603   0.25919 
H          H       0.09778   0.55240   0.37609 
C          C       0.85599   0.85345   0.49264 
C          C       0.91328   0.87782   0.43656 
C          C       0.95172   0.93753   0.44419 
C          C       0.93200   0.97390   0.00681 
C          C       0.87415   0.94994   0.05644 
C          C       0.83536   0.88929   0.04777 
C          C       0.95046   0.06698   0.08920 
C          C       0.89128   0.04510   0.11849 
C          C       0.74122   0.80659   0.06845 
C          C       0.76475   0.77051   0.04403 
C          C       0.98565   0.86475   0.31288 
C          C       0.02699   0.92271   0.34213 
C          C       0.85906   0.07417   0.16368 
C          C       0.99733   0.12578   0.11638 
C          C       0.68002   0.78968   0.06049 
C          C       0.73773   0.70806   0.06955 
C          C       0.09038   0.95104   0.32728 
C          C       0.99313   0.82105   0.23184 
C          C       0.12516   0.92121   0.34386 
C          C       0.18582   0.95437   0.37442 
C          C       0.21652   0.01706   0.38491 
C          C       0.18403   0.04633   0.35446 
C          C       0.12386   0.01519   0.32362 
C          C       0.95279   0.75853   0.26264 
C          C       0.96813   0.71661   0.22032 
C          C       0.02205   0.73295   0.14032 
C          C       0.05820   0.79329   0.09252 
C          C       0.04342   0.83647   0.12999 
C          C       0.68390   0.67386   0.16236 
C          C       0.66093   0.61360   0.18698 
C          C       0.68847   0.58268   0.12634 
C          C       0.74231   0.61587   0.03970 
C          C       0.76653   0.67612   0.01272 
C          C       0.66035   0.83161   0.09866 
C          C       0.60384   0.82019   0.05855 
C          C       0.56317   0.76648   0.48072 
C          C       0.58123   0.72503   0.44492 
C          C       0.63673   0.73468   0.48589 
C          C       0.87460   0.13565   0.13179 
C          C       0.83562   0.15528   0.17482 
C          C       0.77959   0.11793   0.24572 
C          C       0.76380   0.05875   0.27876 
C          C       0.80146   0.03760   0.24099 
C          C       0.05146   0.15244   0.02253 
C          C       0.08448   0.21377   0.00594 
C          C       0.06830   0.25151   0.08783 
C          C       0.02103   0.22524   0.20114 
C          C       0.98894   0.16402   0.22316 
C          C       0.68360   0.11011   0.29031 
C          C       0.13889   0.34556   0.45592 
C          C       0.30011   0.09856   0.01075 
C          C       0.08985   0.69966   0.06341 
C          C       0.68256   0.48677   0.11155 
C          C       0.46649   0.75785   0.02123 
C          C       0.15631   0.40773   0.42773 
C          C       0.36301   0.13067   0.05231 
C          C       0.40500   0.11524   0.49901 
C          C       0.46490   0.14821   0.04289 
C          C       0.48707   0.19842   0.14604 
C          C       0.44502   0.21453   0.19694 
C          C       0.38522   0.18144   0.15162 
C          C       0.20237   0.44180   0.31737 
C          C       0.22185   0.50174   0.28703 
C          C       0.19734   0.53221   0.36945 
C          C       0.15029   0.49815   0.47792 
C          C       0.13023   0.43776   0.00443 
C          C       0.18464   0.61687   0.27208 
C          C       0.28306   0.63657   0.38923 
C          C       0.58147   0.29542   0.17490 
C          C       0.58276   0.20134   0.22589 
C          C       0.63041   0.32371   0.06768 
C          C       0.66301   0.38543   0.05139 
C          C       0.64731   0.42254   0.13682 
C          C       0.59890   0.39454   0.24420 
C          C       0.56719   0.33275   0.26495 
C          C       0.55527   0.13891   0.24295 
C          C       0.58826   0.11042   0.26707 
C          C       0.65074   0.14188   0.27631 
C          C       0.67771   0.20426   0.27256 
C          C       0.64513   0.23308   0.24912 
C          C       0.32204   0.61605   0.43703 
C          C       0.38069   0.65526   0.48191 
C          C       0.40447   0.71724   0.48445 
C          C       0.36579   0.73815   0.44335 
C          C       0.30736   0.69930   0.39536 
C          C       0.21069   0.66611   0.16620 
C          C       0.17897   0.69092   0.09776 
C          C       0.11849   0.66822   0.13066 
C          C       0.09109   0.61702   0.22942 
C          C       0.12271   0.59140   0.29665 
N          N       0.97081   0.03184   0.02039 
N          N       0.85288   0.98387   0.11017 
N          N       0.77826   0.86775   0.08509 
N          N       0.82281   0.79448   0.49211 
N          N       0.92848   0.84073   0.37085 
N          N       0.00848   0.96119   0.39950 
N          N       0.74129   0.14061   0.27675 
N          N       0.09618   0.31352   0.05778 
N          N       0.27737   0.04907   0.42840 
N          N       0.03930   0.68950   0.12238 
N          N       0.66098   0.52053   0.15325 
N          N       0.50450   0.74996   0.43929 
N          N       0.22128   0.59533   0.34489 
N          N       0.54950   0.23143   0.19088 
H          H       0.10446   0.87203   0.85396 
H          H       0.21074   0.93070   0.89629 
H          H       0.20631   0.09535   0.85698 
H          H       0.10025   0.04065   0.80966 
H          H       0.91236   0.74403   0.83726 
H          H       0.93862   0.66995   0.75864 
H          H       0.10038   0.80728   0.52820 
H          H       0.07341   0.88393   0.59733 
H          H       0.65695   0.69282   0.71169 
H          H       0.61877   0.58847   0.75496 
H          H       0.76616   0.59438   0.98860 
H          H       0.80876   0.69969   0.94383 
H          H       0.69192   0.87530   0.65362 
H          H       0.59096   0.85372   0.58885 
H          H       0.54941   0.68237   0.88648 
H          H       0.64390   0.69838   0.94634 
H          H       0.91593   0.17084   0.57235 
H          H       0.84813   0.20182   0.64626 
H          H       0.72071   0.02789   0.83572 
H          H       0.78596   0.99053   0.77165 
H          H       0.06183   0.12438   0.94323 
H          H       0.12237   0.23226   0.92052 
H          H       0.00929   0.25383   0.77291 
H          H       0.95103   0.14163   0.80854 
H          H       0.65752   0.06075   0.79062 
H          H       0.16199   0.32753   0.88342 
H          H       0.27361   0.11829   0.55427 
H          H       0.11870   0.73894   0.98836 
H          H       0.72704   0.50512   0.55499 
H          H       0.47824   0.78641   0.62934 
H          H       0.39144   0.07672   0.91789 
H          H       0.49558   0.13444   0.99315 
H          H       0.45715   0.25212   0.77989 
H          H       0.35505   0.19647   0.69829 
H          H       0.22440   0.42139   0.74991 
H          H       0.25749   0.52598   0.69657 
H          H       0.13054   0.51971   0.55043 
H          H       0.09408   0.41450   0.59382 
H          H       0.64345   0.29625   0.99506 
H          H       0.70091   0.40426   0.96587 
H          H       0.58551   0.42113   0.81930 
H          H       0.53349   0.31433   0.86236 
H          H       0.50645   0.11021   0.73791 
H          H       0.56331   0.06139   0.77439 
H          H       0.72639   0.23239   0.78360 
H          H       0.67076   0.28221   0.74965 
H          H       0.30736   0.56814   0.94327 
H          H       0.40847   0.63568   0.51547 
H          H       0.38182   0.78651   0.94391 
H          H       0.27978   0.72002   0.87241 
H          H       0.25835   0.68671   0.63837 
H          H       0.20346   0.72974   0.51740 
H          H       0.04332   0.59603   0.75919 
H          H       0.09778   0.55240   0.87609 
C          C       0.85599   0.85345   0.99264 
C          C       0.91328   0.87782   0.93656 
C          C       0.95172   0.93753   0.94419 
C          C       0.93200   0.97390   0.50681 
C          C       0.87415   0.94994   0.55644 
C          C       0.83536   0.88929   0.54777 
C          C       0.95046   0.06698   0.58920 
C          C       0.89128   0.04510   0.61849 
C          C       0.74122   0.80659   0.56845 
C          C       0.76475   0.77051   0.54403 
C          C       0.98565   0.86475   0.81288 
C          C       0.02699   0.92271   0.84213 
C          C       0.85906   0.07417   0.66368 
C          C       0.99733   0.12578   0.61638 
C          C       0.68002   0.78968   0.56049 
C          C       0.73773   0.70806   0.56955 
C          C       0.09038   0.95104   0.82728 
C          C       0.99313   0.82105   0.73185 
C          C       0.12516   0.92121   0.84386 
C          C       0.18582   0.95437   0.87442 
C          C       0.21652   0.01706   0.88491 
C          C       0.18403   0.04633   0.85446 
C          C       0.12386   0.01519   0.82362 
C          C       0.95279   0.75853   0.76264 
C          C       0.96813   0.71661   0.72032 
C          C       0.02205   0.73295   0.64032 
C          C       0.05820   0.79329   0.59252 
C          C       0.04342   0.83647   0.62999 
C          C       0.68390   0.67386   0.66236 
C          C       0.66093   0.61360   0.68698 
C          C       0.68847   0.58268   0.62634 
C          C       0.74231   0.61587   0.53970 
C          C       0.76653   0.67612   0.51272 
C          C       0.66035   0.83161   0.59866 
C          C       0.60384   0.82019   0.55855 
C          C       0.56317   0.76648   0.98072 
C          C       0.58123   0.72503   0.94492 
C          C       0.63673   0.73468   0.98589 
C          C       0.87460   0.13565   0.63179 
C          C       0.83562   0.15528   0.67482 
C          C       0.77959   0.11793   0.74572 
C          C       0.76380   0.05875   0.77876 
C          C       0.80146   0.03760   0.74099 
C          C       0.05146   0.15244   0.52253 
C          C       0.08448   0.21377   0.50594 
C          C       0.06830   0.25151   0.58783 
C          C       0.02103   0.22524   0.70114 
C          C       0.98894   0.16402   0.72316 
C          C       0.68360   0.11011   0.79031 
C          C       0.13890   0.34556   0.95592 
C          C       0.30011   0.09856   0.51075 
C          C       0.08985   0.69966   0.56341 
C          C       0.68256   0.48677   0.61155 
C          C       0.46649   0.75785   0.52123 
C          C       0.15631   0.40773   0.92773 
C          C       0.36301   0.13067   0.55231 
C          C       0.40500   0.11524   0.99901 
C          C       0.46490   0.14821   0.54289 
C          C       0.48707   0.19842   0.64604 
C          C       0.44502   0.21453   0.69694 
C          C       0.38522   0.18144   0.65162 
C          C       0.20237   0.44180   0.81737 
C          C       0.22185   0.50174   0.78703 
C          C       0.19734   0.53221   0.86945 
C          C       0.15029   0.49815   0.97792 
C          C       0.13023   0.43776   0.50443 
C          C       0.18464   0.61687   0.77208 
C          C       0.28306   0.63657   0.88923 
C          C       0.58147   0.29542   0.67490 
C          C       0.58276   0.20134   0.72589 
C          C       0.63041   0.32371   0.56768 
C          C       0.66301   0.38543   0.55139 
C          C       0.64731   0.42254   0.63682 
C          C       0.59890   0.39454   0.74420 
C          C       0.56719   0.33275   0.76495 
C          C       0.55527   0.13891   0.74295 
C          C       0.58826   0.11042   0.76707 
C          C       0.65074   0.14188   0.77631 
C          C       0.67771   0.20426   0.77256 
C          C       0.64513   0.23308   0.74912 
C          C       0.32204   0.61605   0.93703 
C          C       0.38069   0.65526   0.98191 
C          C       0.40447   0.71724   0.98445 
C          C       0.36579   0.73815   0.94335 
C          C       0.30736   0.69930   0.89536 
C          C       0.21069   0.66611   0.66620 
C          C       0.17897   0.69092   0.59776 
C          C       0.11849   0.66822   0.63066 
C          C       0.09109   0.61702   0.72942 
C          C       0.12271   0.59140   0.79665 
N          N       0.97081   0.03184   0.52039 
N          N       0.85288   0.98387   0.61017 
N          N       0.77826   0.86775   0.58509 
N          N       0.82281   0.79448   0.99211 
N          N       0.92848   0.84073   0.87085 
N          N       0.00848   0.96119   0.89950 
N          N       0.74129   0.14061   0.77675 
N          N       0.09618   0.31352   0.55779 
N          N       0.27737   0.04907   0.92840 
N          N       0.03930   0.68950   0.62238 
N          N       0.66098   0.52053   0.65325 
N          N       0.50450   0.74996   0.93929 
N          N       0.22128   0.59533   0.84489 
N          N       0.54950   0.23143   0.69088 
