data_crystal

_cell_length_a    33.03000
_cell_length_b    33.03000
_cell_length_c    8.40000
_cell_angle_alpha 90.00000
_cell_angle_beta  90.00000
_cell_angle_gamma 120.00000

_space_group_name_Hall 'P 1'
_space_group_name_H-M_alt  'P 1'

loop_
_symmetry_equiv_pos_as_xyz
'x,y,z' 

loop_
_atom_site_label
_atom_site_type_symbol
_atom_site_fract_x
_atom_site_fract_y
_atom_site_fract_z
H          H       0.28380   0.80217   0.24886 
H          H       0.36622   0.85560   0.29767 
H          H       0.33327   0.95096   0.54238 
H          H       0.25099   0.89875   0.50003 
H          H       0.14580   0.67399   0.28198 
H          H       0.16951   0.61710   0.33550 
H          H       0.29555   0.72292   0.56655 
H          H       0.27280   0.78064   0.51951 
H          H       0.93156   0.59481   0.66244 
H          H       0.90641   0.51207   0.66041 
H          H       0.02444   0.53857   0.36352 
H          H       0.05034   0.62102   0.35927 
H          H       0.93336   0.72560   0.63265 
H          H       0.85211   0.70136   0.58773 
H          H       0.83080   0.57566   0.35161 
H          H       0.91116   0.59813   0.39092 
H          H       0.08381   0.96100   0.44693 
H          H       0.02751   0.98670   0.47064 
H          H       0.92532   0.85311   0.66837 
H          H       0.98122   0.82556   0.65447 
H          H       0.20363   0.94552   0.39935 
H          H       0.26269   0.02445   0.46030 
H          H       0.16640   0.04017   0.76967 
H          H       0.10628   0.96012   0.71679 
H          H       0.87935   0.87877   0.49971 
H          H       0.31191   0.09400   0.53021 
H          H       0.40864   0.00132   0.43537 
H          H       0.19471   0.57062   0.39502 
H          H       0.99559   0.46377   0.37359 
H          H       0.77699   0.67201   0.54580 
H          H       0.46354   0.94464   0.68193 
H          H       0.54160   0.98533   0.79046 
H          H       0.56683   0.11223   0.54650 
H          H       0.48756   0.07177   0.44707 
H          H       0.37857   0.17117   0.48010 
H          H       0.41939   0.25540   0.50825 
H          H       0.31068   0.24344   0.83182 
H          H       0.27007   0.15960   0.80052 
H          H       0.60157   0.99814   0.64111 
H          H       0.67863   0.02315   0.54678 
H          H       0.71346   0.16810   0.59563 
H          H       0.63502   0.14263   0.68602 
H          H       0.45931   0.32733   0.63201 
H          H       0.48516   0.40725   0.55974 
H          H       0.34159   0.37852   0.58993 
H          H       0.31669   0.30009   0.66993 
H          H       0.84459   0.15771   0.45338 
H          H       0.89530   0.23702   0.37145 
H          H       0.77476   0.25288   0.27620 
H          H       0.72353   0.17267   0.35686 
H          H       0.72199   0.03369   0.32139 
H          H       0.75295   0.98065   0.34984 
H          H       0.84756   0.07182   0.71971 
H          H       0.81475   0.12240   0.69067 
H          H       0.48716   0.42585   0.32883 
H          H       0.56670   0.47879   0.25117 
H          H       0.55190   0.59568   0.41362 
H          H       0.47471   0.54316   0.49945 
H          H       0.43364   0.51081   0.70839 
H          H       0.37956   0.53981   0.72977 
H          H       0.29365   0.44243   0.35765 
H          H       0.35021   0.41609   0.33440 
H          H       0.35036   0.57842   0.67714 
H          H       0.30866   0.61906   0.63482 
H          H       0.20272   0.50166   0.36529 
H          H       0.24350   0.45934   0.40876 
H          H       0.92945   0.30681   0.20750 
H          H       0.98102   0.38949   0.26450 
H          H       0.86900   0.39316   0.52325 
H          H       0.81741   0.31132   0.46703 
H          H       0.77007   0.93122   0.42176 
H          H       0.81112   0.88786   0.41974 
H          H       0.92607   0.00005   0.68017 
H          H       0.88747   0.04426   0.67813 
H          H       0.63540   0.52730   0.19536 
H          H       0.71685   0.56599   0.26343 
H          H       0.69994   0.66332   0.56405 
H          H       0.61827   0.62442   0.50214 
C          C       0.07089   0.73474   0.44272 
C          C       0.11777   0.76033   0.41163 
C          C       0.14013   0.80737   0.42367 
C          C       0.11571   0.82935   0.46058 
C          C       0.06942   0.80429   0.49421 
C          C       0.04691   0.75645   0.48674 
C          C       0.11644   0.89756   0.52011 
C          C       0.06925   0.87313   0.53675 
C          C       0.98000   0.68468   0.51107 
C          C       0.00546   0.66327   0.48686 
C          C       0.18865   0.76359   0.38119 
C          C       0.21087   0.81114   0.38148 
C          C       0.03876   0.89101   0.55505 
C          C       0.14838   0.94533   0.54780 
C          C       0.93079   0.66423   0.51916 
C          C       0.99168   0.61560   0.50221 
C          C       0.25894   0.84407   0.37512 
C          C       0.20784   0.73376   0.38867 
C          C       0.29379   0.83479   0.31246 
C          C       0.34053   0.86494   0.34100 
C          C       0.35582   0.90678   0.42568 
C          C       0.32248   0.91846   0.47588 
C          C       0.27573   0.88903   0.44932 
C          C       0.17979   0.68581   0.34028 
C          C       0.19289   0.65332   0.37357 
C          C       0.23463   0.66579   0.45493 
C          C       0.26301   0.71256   0.50079 
C          C       0.25100   0.74592   0.46770 
C          C       0.95192   0.58308   0.59327 
C          C       0.93807   0.53635   0.59401 
C          C       0.96270   0.51885   0.50972 
C          C       0.00379   0.55066   0.42971 
C          C       0.01857   0.59757   0.42729 
C          C       0.91084   0.69147   0.57561 
C          C       0.86489   0.67817   0.54685 
C          C       0.83528   0.63656   0.46508 
C          C       0.85344   0.60823   0.41658 
C          C       0.89911   0.62043   0.44482 
C          C       0.05024   0.93705   0.50325 
C          C       0.01791   0.95145   0.51255 
C          C       0.97279   0.92189   0.57110 
C          C       0.96056   0.87674   0.62175 
C          C       0.99219   0.86139   0.61488 
C          C       0.19451   0.96598   0.48045 
C          C       0.22826   0.01082   0.51640 
C          C       0.21897   0.03854   0.61994 
C          C       0.17410   0.01913   0.68671 
C          C       0.13961   0.97421   0.65329 
C          C       0.89751   0.91523   0.54160 
C          C       0.29510   0.10854   0.60603 
C          C       0.42404   0.98029   0.47615 
C          C       0.22835   0.58951   0.45793 
C          C       0.96075   0.44741   0.42889 
C          C       0.76390   0.64075   0.47003 
C          C       0.32065   0.15829   0.63614 
C          C       0.46930   0.00461   0.55238 
C          C       0.48566   0.98190   0.65345 
C          C       0.52949   0.00539   0.72040 
C          C       0.56159   0.05225   0.67749 
C          C       0.54325   0.07644   0.58867 
C          C       0.49884   0.05267   0.52569 
C          C       0.36392   0.18665   0.56137 
C          C       0.38795   0.23437   0.58056 
C          C       0.36882   0.25707   0.67368 
C          C       0.32666   0.22778   0.75747 
C          C       0.30330   0.18021   0.73674 
C          C       0.38570   0.30616   0.65734 
C          C       0.61082   0.06807   0.67388 
C          C       0.62646   0.03594   0.63894 
C          C       0.67034   0.05053   0.57747 
C          C       0.70282   0.09823   0.55292 
C          C       0.68877   0.13028   0.60022 
C          C       0.64475   0.11596   0.66043 
C          C       0.43323   0.33866   0.62457 
C          C       0.44742   0.38372   0.57588 
C          C       0.41553   0.39988   0.55526 
C          C       0.36858   0.36840   0.59657 
C          C       0.35418   0.32361   0.64814 
C          C       0.47484   0.47867   0.43600 
C          C       0.39646   0.46216   0.51735 
C          C       0.76626   0.08175   0.50418 
C          C       0.77910   0.15891   0.42483 
C          C       0.82799   0.17788   0.41617 
C          C       0.85736   0.22258   0.36027 
C          C       0.83967   0.25255   0.31796 
C          C       0.79043   0.23154   0.30976 
C          C       0.76144   0.18665   0.36387 
C          C       0.74917   0.04109   0.41125 
C          C       0.76665   0.01117   0.42901 
C          C       0.80338   0.02092   0.53768 
C          C       0.82001   0.06216   0.63018 
C          C       0.80161   0.09117   0.61502 
C          C       0.50179   0.46327   0.35387 
C          C       0.54651   0.49404   0.30065 
C          C       0.56823   0.54271   0.33166 
C          C       0.53842   0.55831   0.39118 
C          C       0.49404   0.52751   0.44621 
C          C       0.40307   0.49655   0.62880 
C          C       0.37173   0.51233   0.64150 
C          C       0.33095   0.49407   0.54577 
C          C       0.32363   0.45760   0.43933 
C          C       0.35588   0.44297   0.42327 
C          C       0.30145   0.51483   0.54533 
C          C       0.61854   0.57205   0.34063 
C          C       0.86852   0.30220   0.32777 
C          C       0.82474   0.99218   0.54913 
C          C       0.31724   0.55998   0.61152 
C          C       0.29377   0.58375   0.58437 
C          C       0.25242   0.56419   0.49387 
C          C       0.23494   0.51847   0.43654 
C          C       0.25808   0.49420   0.46241 
C          C       0.91588   0.32608   0.27453 
C          C       0.94493   0.37254   0.30907 
C          C       0.92933   0.39836   0.39713 
C          C       0.88274   0.37493   0.45125 
C          C       0.85286   0.32882   0.41652 
C          C       0.80435   0.94678   0.48019 
C          C       0.82766   0.92207   0.47924 
C          C       0.87220   0.94033   0.54795 
C          C       0.89171   0.98433   0.62188 
C          C       0.86912   0.00950   0.62315 
C          C       0.64904   0.55777   0.27470 
C          C       0.69549   0.57958   0.31554 
C          C       0.71550   0.61798   0.42048 
C          C       0.68623   0.63388   0.48000 
C          C       0.63966   0.61230   0.44110 
N          N       0.13979   0.87519   0.47281 
N          N       0.04536   0.82490   0.53329 
N          N       0.00183   0.73266   0.52055 
N          N       0.05151   0.68885   0.44209 
N          N       0.14073   0.73789   0.38434 
N          N       0.18572   0.83335   0.40628 
N          N       0.94142   0.93831   0.57711 
N          N       0.25250   0.08467   0.65723 
N          N       0.40298   0.93517   0.46526 
N          N       0.24888   0.63355   0.49257 
N          N       0.94439   0.47044   0.50345 
N          N       0.78874   0.62228   0.42782 
N          N       0.42949   0.44657   0.50131 
N          N       0.74858   0.11299   0.48885 
H          H       0.28380   0.80217   0.74886 
H          H       0.36622   0.85560   0.79766 
H          H       0.33327   0.95096   0.04238 
H          H       0.25099   0.89875   0.00003 
H          H       0.14580   0.67399   0.78199 
H          H       0.16951   0.61710   0.83550 
H          H       0.29555   0.72292   0.06655 
H          H       0.27280   0.78064   0.01951 
H          H       0.93156   0.59481   0.16244 
H          H       0.90641   0.51207   0.16041 
H          H       0.02444   0.53857   0.86352 
H          H       0.05034   0.62102   0.85927 
H          H       0.93336   0.72560   0.13265 
H          H       0.85211   0.70136   0.08773 
H          H       0.83080   0.57566   0.85161 
H          H       0.91116   0.59813   0.89092 
H          H       0.08381   0.96100   0.94693 
H          H       0.02751   0.98670   0.97064 
H          H       0.92532   0.85311   0.16837 
H          H       0.98122   0.82556   0.15447 
H          H       0.20363   0.94552   0.89934 
H          H       0.26269   0.02445   0.96030 
H          H       0.16640   0.04017   0.26967 
H          H       0.10628   0.96012   0.21678 
H          H       0.87935   0.87877   0.99971 
H          H       0.31191   0.09400   0.03021 
H          H       0.40864   0.00132   0.93537 
H          H       0.19471   0.57062   0.89502 
H          H       0.99559   0.46377   0.87359 
H          H       0.77699   0.67201   0.04580 
H          H       0.46354   0.94464   0.18193 
H          H       0.54160   0.98533   0.29046 
H          H       0.56683   0.11223   0.04650 
H          H       0.48756   0.07177   0.94707 
H          H       0.37857   0.17117   0.98010 
H          H       0.41939   0.25540   0.00825 
H          H       0.31068   0.24344   0.33182 
H          H       0.27007   0.15960   0.30052 
H          H       0.60157   0.99814   0.14111 
H          H       0.67863   0.02315   0.04679 
H          H       0.71346   0.16810   0.09563 
H          H       0.63502   0.14263   0.18602 
H          H       0.45931   0.32733   0.13200 
H          H       0.48516   0.40725   0.05974 
H          H       0.34159   0.37852   0.08993 
H          H       0.31669   0.30009   0.16993 
H          H       0.84459   0.15771   0.95338 
H          H       0.89530   0.23702   0.87145 
H          H       0.77476   0.25288   0.77620 
H          H       0.72353   0.17267   0.85686 
H          H       0.72199   0.03369   0.82139 
H          H       0.75295   0.98065   0.84983 
H          H       0.84756   0.07182   0.21971 
H          H       0.81475   0.12240   0.19067 
H          H       0.48716   0.42585   0.82883 
H          H       0.56670   0.47879   0.75117 
H          H       0.55190   0.59568   0.91362 
H          H       0.47471   0.54316   0.99945 
H          H       0.43364   0.51081   0.20839 
H          H       0.37956   0.53981   0.22977 
H          H       0.29365   0.44243   0.85765 
H          H       0.35021   0.41609   0.83440 
H          H       0.35036   0.57842   0.17714 
H          H       0.30866   0.61906   0.13482 
H          H       0.20272   0.50166   0.86530 
H          H       0.24350   0.45934   0.90876 
H          H       0.92945   0.30681   0.70749 
H          H       0.98102   0.38949   0.76451 
H          H       0.86900   0.39316   0.02325 
H          H       0.81741   0.31132   0.96703 
H          H       0.77007   0.93122   0.92176 
H          H       0.81112   0.88786   0.91974 
H          H       0.92607   0.00005   0.18017 
H          H       0.88747   0.04426   0.17813 
H          H       0.63540   0.52730   0.69535 
H          H       0.71685   0.56599   0.76343 
H          H       0.69994   0.66332   0.06406 
H          H       0.61827   0.62442   0.00214 
C          C       0.07089   0.73474   0.94273 
C          C       0.11777   0.76033   0.91163 
C          C       0.14013   0.80737   0.92366 
C          C       0.11571   0.82935   0.96058 
C          C       0.06942   0.80429   0.99421 
C          C       0.04691   0.75645   0.98674 
C          C       0.11644   0.89756   0.02012 
C          C       0.06925   0.87313   0.03675 
C          C       0.98000   0.68468   0.01107 
C          C       0.00546   0.66327   0.98686 
C          C       0.18865   0.76359   0.88119 
C          C       0.21087   0.81114   0.88148 
C          C       0.03876   0.89101   0.05505 
C          C       0.14838   0.94533   0.04780 
C          C       0.93079   0.66423   0.01917 
C          C       0.99168   0.61560   0.00221 
C          C       0.25894   0.84407   0.87512 
C          C       0.20784   0.73376   0.88867 
C          C       0.29379   0.83479   0.81246 
C          C       0.34053   0.86494   0.84100 
C          C       0.35582   0.90678   0.92568 
C          C       0.32248   0.91846   0.97588 
C          C       0.27573   0.88903   0.94932 
C          C       0.17979   0.68581   0.84028 
C          C       0.19289   0.65332   0.87357 
C          C       0.23463   0.66579   0.95493 
C          C       0.26301   0.71256   0.00080 
C          C       0.25100   0.74592   0.96769 
C          C       0.95192   0.58308   0.09326 
C          C       0.93807   0.53635   0.09401 
C          C       0.96270   0.51885   0.00972 
C          C       0.00379   0.55066   0.92971 
C          C       0.01857   0.59757   0.92729 
C          C       0.91084   0.69147   0.07561 
C          C       0.86489   0.67817   0.04685 
C          C       0.83528   0.63656   0.96508 
C          C       0.85344   0.60823   0.91658 
C          C       0.89911   0.62043   0.94482 
C          C       0.05024   0.93705   0.00325 
C          C       0.01791   0.95145   0.01256 
C          C       0.97279   0.92189   0.07110 
C          C       0.96056   0.87674   0.12176 
C          C       0.99219   0.86139   0.11488 
C          C       0.19451   0.96598   0.98045 
C          C       0.22826   0.01082   0.01640 
C          C       0.21897   0.03854   0.11994 
C          C       0.17410   0.01913   0.18671 
C          C       0.13961   0.97421   0.15329 
C          C       0.89751   0.91523   0.04160 
C          C       0.29510   0.10854   0.10603 
C          C       0.42404   0.98029   0.97615 
C          C       0.22835   0.58951   0.95793 
C          C       0.96075   0.44741   0.92889 
C          C       0.76390   0.64075   0.97003 
C          C       0.32065   0.15829   0.13613 
C          C       0.46930   0.00461   0.05238 
C          C       0.48566   0.98190   0.15344 
C          C       0.52949   0.00539   0.22040 
C          C       0.56159   0.05225   0.17748 
C          C       0.54325   0.07644   0.08867 
C          C       0.49884   0.05267   0.02569 
C          C       0.36392   0.18665   0.06137 
C          C       0.38795   0.23437   0.08056 
C          C       0.36882   0.25707   0.17368 
C          C       0.32666   0.22778   0.25747 
C          C       0.30330   0.18021   0.23674 
C          C       0.38570   0.30616   0.15734 
C          C       0.61082   0.06807   0.17389 
C          C       0.62646   0.03594   0.13894 
C          C       0.67034   0.05053   0.07747 
C          C       0.70282   0.09823   0.05292 
C          C       0.68877   0.13028   0.10022 
C          C       0.64475   0.11596   0.16043 
C          C       0.43323   0.33866   0.12457 
C          C       0.44742   0.38372   0.07588 
C          C       0.41553   0.39988   0.05526 
C          C       0.36858   0.36840   0.09657 
C          C       0.35418   0.32361   0.14814 
C          C       0.47484   0.47867   0.93599 
C          C       0.39646   0.46216   0.01735 
C          C       0.76626   0.08175   0.00418 
C          C       0.77910   0.15891   0.92483 
C          C       0.82799   0.17788   0.91617 
C          C       0.85736   0.22258   0.86027 
C          C       0.83967   0.25255   0.81796 
C          C       0.79043   0.23154   0.80976 
C          C       0.76144   0.18665   0.86387 
C          C       0.74917   0.04109   0.91124 
C          C       0.76665   0.01117   0.92900 
C          C       0.80338   0.02092   0.03767 
C          C       0.82001   0.06216   0.13018 
C          C       0.80161   0.09117   0.11502 
C          C       0.50179   0.46327   0.85387 
C          C       0.54651   0.49404   0.80065 
C          C       0.56823   0.54271   0.83166 
C          C       0.53842   0.55831   0.89118 
C          C       0.49404   0.52751   0.94621 
C          C       0.40307   0.49655   0.12881 
C          C       0.37173   0.51233   0.14149 
C          C       0.33095   0.49407   0.04577 
C          C       0.32363   0.45760   0.93934 
C          C       0.35588   0.44297   0.92327 
C          C       0.30145   0.51483   0.04533 
C          C       0.61854   0.57205   0.84063 
C          C       0.86852   0.30220   0.82777 
C          C       0.82474   0.99218   0.04913 
C          C       0.31724   0.55998   0.11153 
C          C       0.29377   0.58375   0.08437 
C          C       0.25242   0.56419   0.99387 
C          C       0.23494   0.51847   0.93654 
C          C       0.25808   0.49420   0.96241 
C          C       0.91588   0.32608   0.77453 
C          C       0.94493   0.37254   0.80907 
C          C       0.92933   0.39836   0.89713 
C          C       0.88274   0.37493   0.95124 
C          C       0.85286   0.32882   0.91652 
C          C       0.80435   0.94678   0.98020 
C          C       0.82766   0.92207   0.97924 
C          C       0.87220   0.94033   0.04795 
C          C       0.89171   0.98433   0.12188 
C          C       0.86912   0.00950   0.12315 
C          C       0.64904   0.55777   0.77470 
C          C       0.69549   0.57958   0.81554 
C          C       0.71550   0.61798   0.92048 
C          C       0.68623   0.63388   0.97999 
C          C       0.63966   0.61230   0.94110 
N          N       0.13979   0.87519   0.97281 
N          N       0.04536   0.82490   0.03330 
N          N       0.00183   0.73266   0.02055 
N          N       0.05151   0.68885   0.94209 
N          N       0.14073   0.73789   0.88434 
N          N       0.18572   0.83335   0.90628 
N          N       0.94142   0.93831   0.07711 
N          N       0.25250   0.08467   0.15723 
N          N       0.40298   0.93517   0.96526 
N          N       0.24888   0.63355   0.99257 
N          N       0.94439   0.47044   0.00345 
N          N       0.78874   0.62228   0.92781 
N          N       0.42949   0.44657   0.00131 
N          N       0.74858   0.11299   0.98886 
