data_crystal
 
_cell_length_a    36.19220
_cell_length_b    36.19220
_cell_length_c    3.43990
_cell_angle_alpha 90.00000
_cell_angle_beta  90.00000
_cell_angle_gamma 120.00000
 
_symmetry_space_group_name_Hall 'P 1'
_symmetry_space_group_name_H-M  'P 1'
 
loop_
_symmetry_equiv_pos_as_xyz
 'x,y,z' 
 
loop_
_atom_site_label
_atom_site_type_symbol
_atom_site_fract_x
_atom_site_fract_y
_atom_site_fract_z
_atom_site_charge
O          O       0.41902   0.95476   0.50000   0.0000000000
C          C       0.48025   0.95734   0.50000   0.0000000000
C          C       0.46419   0.91530   0.50000   0.0000000000
C          C       0.45624   0.97706   0.50000   0.0000000000
C          C       0.35481   0.71478   0.50000   0.0000000000
H          H       0.40641   0.92353   0.50000   0.0000000000
H          H       0.47978   0.89993   0.50000   0.0000000000
H          H       0.53310   0.95979   0.50000   0.0000000000
N          N       0.37852   0.69106   0.50000   0.0000000000
N          N       0.42736   0.87840   0.50000   0.0000000000
C          C       0.41133   0.83963   0.50000   0.0000000000
H          H       0.31977   0.75529   0.50000   0.0000000000
C          C       0.37028   0.81532   0.50000   0.0000000000
C          C       0.35101   0.77297   0.50000   0.0000000000
C          C       0.41280   0.77468   0.50000   0.0000000000
C          C       0.43530   0.81901   0.50000   0.0000000000
C          C       0.37420   0.75416   0.50000   0.0000000000
H          H       0.35722   0.83183   0.50000   0.0000000000
H          H       0.42901   0.76053   0.50000   0.0000000000
H          H       0.46752   0.83493   0.50000   0.0000000000
O          O       0.04524   0.46426   0.50000   0.0000000000
C          C       0.04266   0.52291   0.50000   0.0000000000
C          C       0.08470   0.54889   0.50000   0.0000000000
C          C       0.02294   0.47918   0.50000   0.0000000000
C          C       0.28522   0.64003   0.50000   0.0000000000
H          H       0.07647   0.48288   0.50000   0.0000000000
H          H       0.10007   0.57985   0.50000   0.0000000000
H          H       0.04021   0.57331   0.50000   0.0000000000
N          N       0.30894   0.68746   0.50000   0.0000000000
N          N       0.12160   0.54896   0.50000   0.0000000000
C          C       0.16037   0.57170   0.50000   0.0000000000
H          H       0.24471   0.56448   0.50000   0.0000000000
C          C       0.18468   0.55496   0.50000   0.0000000000
C          C       0.22703   0.57804   0.50000   0.0000000000
C          C       0.22532   0.63812   0.50000   0.0000000000
C          C       0.18099   0.61629   0.50000   0.0000000000
C          C       0.24584   0.62004   0.50000   0.0000000000
H          H       0.16817   0.52539   0.50000   0.0000000000
H          H       0.23947   0.66848   0.50000   0.0000000000
H          H       0.16507   0.63259   0.50000   0.0000000000
O          O       0.53574   0.58098   0.50000   0.0000000000
C          C       0.47709   0.51975   0.50000   0.0000000000
C          C       0.45111   0.53581   0.50000   0.0000000000
C          C       0.52082   0.54376   0.50000   0.0000000000
C          C       0.35997   0.64519   0.50000   0.0000000000
H          H       0.51712   0.59359   0.50000   0.0000000000
H          H       0.42015   0.52022   0.50000   0.0000000000
H          H       0.42669   0.46690   0.50000   0.0000000000
N          N       0.31254   0.62148   0.50000   0.0000000000
N          N       0.45104   0.57264   0.50000   0.0000000000
C          C       0.42830   0.58867   0.50000   0.0000000000
H          H       0.43552   0.68023   0.50000   0.0000000000
C          C       0.44504   0.62972   0.50000   0.0000000000
C          C       0.42196   0.64899   0.50000   0.0000000000
C          C       0.36188   0.58720   0.50000   0.0000000000
C          C       0.38371   0.56470   0.50000   0.0000000000
C          C       0.37996   0.62580   0.50000   0.0000000000
H          H       0.47461   0.64278   0.50000   0.0000000000
H          H       0.33152   0.57099   0.50000   0.0000000000
H          H       0.36741   0.53248   0.50000   0.0000000000
O          O       0.58098   0.04524   0.50000   0.0000000000
C          C       0.51975   0.04266   0.50000   0.0000000000
C          C       0.53581   0.08470   0.50000   0.0000000000
C          C       0.54376   0.02294   0.50000   0.0000000000
C          C       0.64519   0.28522   0.50000   0.0000000000
H          H       0.59359   0.07647   0.50000   0.0000000000
H          H       0.52022   0.10007   0.50000   0.0000000000
H          H       0.46690   0.04021   0.50000   0.0000000000
N          N       0.62148   0.30894   0.50000   0.0000000000
N          N       0.57264   0.12160   0.50000   0.0000000000
C          C       0.58867   0.16037   0.50000   0.0000000000
H          H       0.68023   0.24471   0.50000   0.0000000000
C          C       0.62972   0.18468   0.50000   0.0000000000
C          C       0.64899   0.22703   0.50000   0.0000000000
C          C       0.58720   0.22532   0.50000   0.0000000000
C          C       0.56470   0.18099   0.50000   0.0000000000
C          C       0.62580   0.24584   0.50000   0.0000000000
H          H       0.64278   0.16817   0.50000   0.0000000000
H          H       0.57099   0.23947   0.50000   0.0000000000
H          H       0.53248   0.16507   0.50000   0.0000000000
O          O       0.95476   0.53574   0.50000   0.0000000000
C          C       0.95734   0.47709   0.50000   0.0000000000
C          C       0.91530   0.45111   0.50000   0.0000000000
C          C       0.97706   0.52082   0.50000   0.0000000000
C          C       0.71478   0.35997   0.50000   0.0000000000
H          H       0.92353   0.51712   0.50000   0.0000000000
H          H       0.89993   0.42015   0.50000   0.0000000000
H          H       0.95979   0.42669   0.50000   0.0000000000
N          N       0.69106   0.31254   0.50000   0.0000000000
N          N       0.87840   0.45104   0.50000   0.0000000000
C          C       0.83963   0.42830   0.50000   0.0000000000
H          H       0.75529   0.43552   0.50000   0.0000000000
C          C       0.81532   0.44504   0.50000   0.0000000000
C          C       0.77297   0.42196   0.50000   0.0000000000
C          C       0.77468   0.36188   0.50000   0.0000000000
C          C       0.81901   0.38371   0.50000   0.0000000000
C          C       0.75416   0.37996   0.50000   0.0000000000
H          H       0.83183   0.47461   0.50000   0.0000000000
H          H       0.76053   0.33152   0.50000   0.0000000000
H          H       0.83493   0.36741   0.50000   0.0000000000
O          O       0.46426   0.41902   0.50000   0.0000000000
C          C       0.52291   0.48025   0.50000   0.0000000000
C          C       0.54889   0.46419   0.50000   0.0000000000
C          C       0.47918   0.45624   0.50000   0.0000000000
C          C       0.64003   0.35481   0.50000   0.0000000000
H          H       0.48288   0.40641   0.50000   0.0000000000
H          H       0.57985   0.47978   0.50000   0.0000000000
H          H       0.57331   0.53310   0.50000   0.0000000000
N          N       0.68746   0.37852   0.50000   0.0000000000
N          N       0.54896   0.42736   0.50000   0.0000000000
C          C       0.57170   0.41133   0.50000   0.0000000000
H          H       0.56448   0.31977   0.50000   0.0000000000
C          C       0.55496   0.37028   0.50000   0.0000000000
C          C       0.57804   0.35101   0.50000   0.0000000000
C          C       0.63812   0.41280   0.50000   0.0000000000
C          C       0.61629   0.43530   0.50000   0.0000000000
C          C       0.62004   0.37420   0.50000   0.0000000000
H          H       0.52539   0.35722   0.50000   0.0000000000
H          H       0.66848   0.42901   0.50000   0.0000000000
H          H       0.63259   0.46752   0.50000   0.0000000000
C          C       0.52179   0.97811   0.50000   0.0000000000
C          C       0.02189   0.54368   0.50000   0.0000000000
C          C       0.45632   0.47821   0.50000   0.0000000000
C          C       0.47821   0.02189   0.50000   0.0000000000
C          C       0.97811   0.45632   0.50000   0.0000000000
C          C       0.54368   0.52179   0.50000   0.0000000000
