data_crystal
 
_cell_length_a    24.46000
_cell_length_b    28.61000
_cell_length_c    7.44000
_cell_angle_alpha 90.00000
_cell_angle_beta  90.00000
_cell_angle_gamma 90.00000
 
_symmetry_space_group_name_Hall 'P 1'
_symmetry_space_group_name_H-M  'P 1'
 
loop_
_symmetry_equiv_pos_as_xyz
 'x,y,z' 
 
loop_
_atom_site_label
_atom_site_type_symbol
_atom_site_fract_x
_atom_site_fract_y
_atom_site_fract_z
C          C       0.21990   0.69930   0.05808 
C          C       0.26047   0.68699   0.05428 
C          C       0.29107   0.71743   0.04389 
C          C       0.28018   0.75938   0.04838 
C          C       0.23835   0.77060   0.06026 
C          C       0.20776   0.73996   0.06031 
C          C       0.33305   0.70725   0.03102 
C          C       0.31122   0.79012   0.04088 
C          C       0.35294   0.77838   0.03175 
C          C       0.36255   0.73621   0.03410 
C          C       0.38372   0.80852   0.01963 
C          C       0.37206   0.84917   0.02337 
C          C       0.33171   0.86232   0.03286 
C          C       0.30053   0.83223   0.04163 
C          C       0.25836   0.84199   0.05451 
C          C       0.22912   0.81284   0.07055 
H          H       0.19776   0.82261   0.09139 
H          H       0.24864   0.87367   0.05404 
H          H       0.34237   0.67556   0.01957 
H          H       0.19632   0.67577   0.06003 
H          H       0.39425   0.72636   0.03709 
H          H       0.39609   0.87216   0.01755 
C          C       0.42757   0.79964   0.00426 
C          C       0.45601   0.82501   0.08601 
C          C       0.44286   0.76742   0.90583 
C          C       0.49742   0.81776   0.07702 
H          H       0.44561   0.85067   0.16310 
C          C       0.48413   0.75904   0.90157 
H          H       0.42255   0.74936   0.82514 
C          C       0.51221   0.78355   0.98950 
H          H       0.51804   0.83870   0.14258 
H          H       0.49520   0.73346   0.82601 
C          C       0.32654   0.90701   0.02912 
C          C       0.29732   0.92880   0.12226 
C          C       0.35457   0.93002   0.93252 
C          C       0.29631   0.97095   0.11842 
H          H       0.27574   0.91308   0.20577 
C          C       0.35479   0.97201   0.93337 
H          H       0.37650   0.91472   0.84955 
C          C       0.32565   0.99355   0.02852 
H          H       0.27331   0.98696   0.19327 
H          H       0.37714   0.98789   0.85396 
C          C       0.16339   0.74736   0.06193 
C          C       0.14445   0.77903   0.97092 
C          C       0.13807   0.71992   0.15008 
C          C       0.10249   0.78366   0.97148 
H          H       0.16242   0.79976   0.89159 
C          C       0.09607   0.72291   0.14346 
H          H       0.15132   0.69571   0.22851 
C          C       0.07769   0.75489   0.05312 
H          H       0.08854   0.80827   0.89801 
H          H       0.07731   0.70100   0.21353 
C          C       0.26928   0.64296   0.06071 
C          C       0.30217   0.62701   0.15451 
C          C       0.24388   0.61514   0.97580 
C          C       0.31139   0.58597   0.15138 
H          H       0.32066   0.64675   0.23588 
C          C       0.25130   0.57365   0.98107 
H          H       0.21805   0.62597   0.89977 
C          C       0.28584   0.55861   0.06558 
H          H       0.33745   0.57455   0.22394 
H          H       0.23110   0.55288   0.91218 
N          N       0.55321   0.77306   0.97740 
N          N       0.29694   0.51769   0.05639 
C          C       0.58091   0.78986   0.06928 
H          H       0.57429   0.81342   0.16769 
C          C       0.27467   0.48876   0.11208 
H          H       0.24514   0.49445   0.17887 
C          C       0.62371   0.77924   0.04994 
C          C       0.63637   0.74534   0.95541 
C          C       0.65352   0.80377   0.12643 
C          C       0.67726   0.73539   0.94397 
H          H       0.61360   0.72676   0.88963 
C          C       0.69431   0.79377   0.11439 
H          H       0.64454   0.83088   0.19788 
C          C       0.70683   0.75871   0.02853 
H          H       0.68650   0.70922   0.86715 
H          H       0.71717   0.81288   0.17627 
C          C       0.75077   0.74913   0.02570 
C          C       0.76878   0.71244   0.08288 
C          C       0.77792   0.77886   0.96985 
C          C       0.81120   0.70487   0.07579 
N          N       0.75270   0.67925   0.16752 
C          C       0.81983   0.77218   0.96389 
H          H       0.76626   0.80814   0.92502 
C          C       0.83783   0.73565   0.01296 
N          N       0.81835   0.67005   0.17275 
C          C       0.78192   0.65317   0.22454 
C          C       0.71067   0.67045   0.20049 
H          H       0.83905   0.79680   0.91515 
C          C       0.88278   0.73357   0.00215 
C          C       0.85253   0.64106   0.13949 
H          H       0.78159   0.62486   0.29778 
H          H       0.69556   0.65832   0.08559 
H          H       0.70829   0.64738   0.30102 
H          H       0.69394   0.69741   0.24211 
C          C       0.90338   0.70392   0.90797 
C          C       0.90577   0.76413   0.08163 
H          H       0.85676   0.64628   0.99923 
H          H       0.88049   0.65285   0.19519 
H          H       0.84509   0.61010   0.16565 
C          C       0.94554   0.70271   0.90798 
H          H       0.88637   0.68170   0.83274 
C          C       0.94790   0.76378   0.07709 
H          H       0.89028   0.78813   0.15238 
C          C       0.96851   0.73228   0.99392 
H          H       0.96108   0.67881   0.83613 
H          H       0.96516   0.78762   0.14231 
Br         Br      0.82814   0.63270   0.36319 
C          C       0.28687   0.44619   0.09576 
C          C       0.26348   0.41555   0.17274 
C          C       0.32124   0.43459   0.00140 
C          C       0.27509   0.37520   0.16235 
H          H       0.23619   0.42353   0.24560 
C          C       0.33216   0.39406   0.98755 
H          H       0.33906   0.45785   0.93475 
C          C       0.31014   0.36360   0.07305 
H          H       0.25697   0.35202   0.22773 
H          H       0.35791   0.38583   0.90602 
C          C       0.32091   0.32001   0.06729 
C          C       0.35958   0.30288   0.10410 
C          C       0.29053   0.29189   0.02735 
C          C       0.36746   0.26060   0.09622 
N          N       0.39582   0.31969   0.15894 
C          C       0.29801   0.25025   0.01615 
H          H       0.25988   0.30270   0.99656 
C          C       0.33624   0.23318   0.04488 
N          N       0.40860   0.25524   0.12867 
C          C       0.42628   0.29175   0.17318 
C          C       0.40403   0.36128   0.20141 
H          H       0.27275   0.23067   0.97679 
C          C       0.34080   0.18876   0.02417 
C          C       0.42562   0.21705   0.20415 
H          H       0.45817   0.29313   0.21301 
H          H       0.41033   0.37973   0.08678 
H          H       0.37841   0.37490   0.26974 
H          H       0.43091   0.36300   0.28408 
C          C       0.31180   0.16279   0.09802 
C          C       0.37237   0.17135   0.92880 
H          H       0.39685   0.20045   0.23231 
H          H       0.44450   0.19998   0.11909 
H          H       0.43734   0.22366   0.33098 
C          C       0.31515   0.12103   0.08466 
H          H       0.28677   0.17546   0.17255 
C          C       0.37615   0.12950   0.91761 
H          H       0.39447   0.19084   0.86319 
C          C       0.34782   0.10353   0.99657 
H          H       0.29258   0.10139   0.14627 
H          H       0.40133   0.11663   0.84383 
Br         Br      0.46836   0.25118   0.11242 
C          C       0.01286   0.72990   0.99431 
H          H       0.02615   0.70120   0.94251 
C          C       0.35207   0.05949   0.98682 
H          H       0.38162   0.04813   0.93459 
N          N       0.32329   0.03579   0.03669 
N          N       0.03538   0.75891   0.04831 
C          C       0.22066   0.69590   0.56573 
C          C       0.26164   0.68507   0.55768 
C          C       0.29131   0.71628   0.54448 
C          C       0.27897   0.75776   0.54890 
C          C       0.23680   0.76756   0.56246 
C          C       0.20716   0.73607   0.56591 
C          C       0.33361   0.70767   0.52789 
C          C       0.30895   0.78943   0.54011 
C          C       0.35119   0.77951   0.53024 
C          C       0.36214   0.73765   0.52854 
C          C       0.38065   0.81112   0.52170 
C          C       0.36707   0.85123   0.52723 
C          C       0.32620   0.86225   0.53914 
C          C       0.29646   0.83091   0.54220 
C          C       0.25399   0.83941   0.55045 
C          C       0.22585   0.80939   0.56904 
H          H       0.19415   0.81814   0.58831 
H          H       0.24323   0.87072   0.54320 
H          H       0.34396   0.67630   0.51542 
H          H       0.19797   0.67156   0.57204 
H          H       0.39414   0.72878   0.52612 
H          H       0.38985   0.87549   0.52289 
C          C       0.42520   0.80522   0.51518 
C          C       0.45028   0.83270   0.60428 
C          C       0.44459   0.77448   0.42142 
C          C       0.49223   0.82949   0.60362 
H          H       0.43668   0.85690   0.68096 
C          C       0.48654   0.77007   0.42563 
H          H       0.42709   0.75435   0.33790 
C          C       0.51125   0.79719   0.51774 
H          H       0.50994   0.85196   0.67488 
H          H       0.50079   0.74551   0.35347 
C          C       0.31740   0.90611   0.54978 
C          C       0.28650   0.92257   0.65251 
C          C       0.34254   0.93348   0.46050 
C          C       0.27999   0.96410   0.65949 
H          H       0.26810   0.90299   0.73516 
C          C       0.33734   0.97505   0.47235 
H          H       0.36642   0.92217   0.37571 
C          C       0.30575   0.99115   0.57228 
H          H       0.25594   0.97610   0.74142 
H          H       0.35735   0.99488   0.39775 
C          C       0.16270   0.74274   0.56742 
C          C       0.14382   0.77412   0.47439 
C          C       0.13732   0.71557   0.65656 
C          C       0.10204   0.77962   0.47872 
H          H       0.16168   0.79409   0.39130 
C          C       0.09530   0.71922   0.65259 
H          H       0.15052   0.69119   0.73431 
C          C       0.07713   0.75174   0.56514 
H          H       0.08820   0.80437   0.40574 
H          H       0.07645   0.69749   0.72311 
C          C       0.27123   0.64130   0.56161 
C          C       0.30434   0.62527   0.65338 
C          C       0.24549   0.61396   0.47584 
C          C       0.31249   0.58398   0.65331 
H          H       0.32352   0.64501   0.73197 
C          C       0.25194   0.57243   0.48351 
H          H       0.22005   0.62524   0.39872 
C          C       0.28572   0.55706   0.57216 
H          H       0.33826   0.57209   0.72640 
H          H       0.23149   0.55180   0.41507 
N          N       0.55316   0.79054   0.51456 
N          N       0.29348   0.51534   0.57707 
C          C       0.57823   0.81013   0.61007 
H          H       0.56859   0.83390   0.70300 
C          C       0.26660   0.49063   0.63364 
H          H       0.23697   0.50128   0.68711 
C          C       0.62185   0.80242   0.60108 
C          C       0.63722   0.76916   0.51020 
C          C       0.64953   0.82806   0.68534 
C          C       0.67879   0.76317   0.49672 
H          H       0.61609   0.74818   0.44754 
C          C       0.69112   0.82205   0.67107 
H          H       0.63825   0.85322   0.76330 
C          C       0.70652   0.79037   0.57063 
H          H       0.69014   0.73747   0.42258 
H          H       0.71209   0.84224   0.73919 
C          C       0.75075   0.78482   0.54572 
C          C       0.77773   0.81515   0.48350 
C          C       0.76866   0.74762   0.58492 
C          C       0.82041   0.80962   0.47263 
N          N       0.77074   0.85249   0.40801 
C          C       0.81071   0.74163   0.57508 
H          H       0.74963   0.72267   0.63214 
C          C       0.83785   0.77197   0.52485 
N          N       0.83553   0.84122   0.37252 
C          C       0.80507   0.86882   0.33795 
C          C       0.73323   0.87466   0.39701 
H          H       0.82260   0.71201   0.61458 
C          C       0.88185   0.76227   0.52845 
C          C       0.87771   0.85826   0.38878 
H          H       0.81180   0.89624   0.26414 
H          H       0.72845   0.89301   0.51288 
H          H       0.73423   0.89552   0.28779 
H          H       0.70684   0.85471   0.38140 
C          C       0.89579   0.72780   0.44209 
C          C       0.91005   0.78508   0.62300 
H          H       0.88365   0.85163   0.52670 
H          H       0.89906   0.83862   0.32278 
H          H       0.87966   0.89005   0.36304 
C          C       0.93679   0.71793   0.43988 
H          H       0.87422   0.70903   0.37105 
C          C       0.95118   0.77608   0.61654 
H          H       0.89970   0.81007   0.70355 
C          C       0.96535   0.74276   0.52242 
H          H       0.94680   0.69122   0.36819 
H          H       0.97297   0.79474   0.68763 
Br         Br      0.85118   0.87434   0.17659 
C          C       0.27312   0.44683   0.63248 
C          C       0.24590   0.42087   0.71735 
C          C       0.30640   0.42986   0.54667 
C          C       0.25092   0.37915   0.71116 
H          H       0.22077   0.43365   0.79155 
C          C       0.31069   0.38812   0.53680 
H          H       0.32837   0.44981   0.48304 
C          C       0.28220   0.36204   0.61328 
H          H       0.23028   0.35946   0.78361 
H          H       0.33597   0.37542   0.46343 
C          C       0.28577   0.31775   0.59091 
C          C       0.25349   0.29162   0.54090 
C          C       0.32329   0.29902   0.61743 
C          C       0.25837   0.24911   0.52598 
N          N       0.21385   0.29859   0.48968 
C          C       0.32818   0.25700   0.60744 
H          H       0.34949   0.31746   0.65615 
C          C       0.29614   0.23074   0.56860 
N          N       0.22069   0.23280   0.48367 
C          C       0.19313   0.26352   0.45432 
C          C       0.19305   0.33664   0.47007 
H          H       0.35808   0.24447   0.63939 
C          C       0.30356   0.18657   0.57296 
C          C       0.21646   0.19428   0.38480 
H          H       0.16232   0.25700   0.40914 
H          H       0.17706   0.34528   0.58825 
H          H       0.21397   0.36117   0.43589 
H          H       0.17014   0.33421   0.36847 
C          C       0.27770   0.15972   0.66050 
C          C       0.33820   0.17098   0.49249 
H          H       0.24771   0.19229   0.32946 
H          H       0.21416   0.16802   0.46820 
H          H       0.19423   0.19670   0.28509 
C          C       0.28456   0.11823   0.65617 
H          H       0.25190   0.17157   0.73335 
C          C       0.34572   0.12964   0.49203 
H          H       0.35898   0.19133   0.42464 
C          C       0.31839   0.10253   0.56946 
H          H       0.26390   0.09753   0.72320 
H          H       0.37257   0.11808   0.42532 
Br         Br      0.16469   0.21095   0.48301 
C          C       0.00887   0.73405   0.51048 
H          H       0.01773   0.70573   0.44106 
C          C       0.32627   0.05905   0.56044 
H          H       0.35828   0.05039   0.52832 
N          N       0.29820   0.03266   0.58683 
N          N       0.03529   0.75849   0.57172 
