data_crystal

_cell_length_a    27.86600
_cell_length_b    30.34100
_cell_length_c    7.84100
_cell_angle_alpha 90.00000
_cell_angle_beta  90.00000
_cell_angle_gamma 90.00000

_space_group_name_Hall 'P 1'
_space_group_name_H-M_alt  'P 1'

loop_
_symmetry_equiv_pos_as_xyz
'x,y,z' 

loop_
_atom_site_label
_atom_site_type_symbol
_atom_site_fract_x
_atom_site_fract_y
_atom_site_fract_z
C          C       0.43636   0.71018   0.78144 
H          H       0.45151   0.67880   0.74532 
C          C       0.39595   0.71024   0.88643 
H          H       0.38142   0.67946   0.93328 
C          C       0.54336   0.80823   0.41488 
H          H       0.57753   0.79453   0.45206 
C          C       0.54330   0.84507   0.30852 
H          H       0.57682   0.85858   0.26248 
C          C       0.30629   0.71030   0.43985 
H          H       0.31758   0.67935   0.38382 
C          C       0.27867   0.71014   0.58833 
H          H       0.26951   0.67821   0.63794 
C          C       0.54324   0.93637   0.77484 
H          H       0.57694   0.92427   0.82544 
C          C       0.54341   0.96708   0.64234 
H          H       0.57818   0.97722   0.59789 
C          C       0.93636   0.21018   0.28144 
H          H       0.95151   0.17880   0.24532 
C          C       0.89595   0.21024   0.38643 
H          H       0.88142   0.17946   0.43328 
C          C       0.04336   0.30823   0.91488 
H          H       0.07753   0.29453   0.95206 
C          C       0.04330   0.34507   0.80852 
H          H       0.07682   0.35858   0.76248 
C          C       0.80629   0.21030   0.93985 
H          H       0.81758   0.17935   0.88382 
C          C       0.77867   0.21014   0.08833 
H          H       0.76951   0.17821   0.13794 
C          C       0.04324   0.43637   0.27484 
H          H       0.07694   0.42427   0.32544 
C          C       0.04341   0.46708   0.14234 
H          H       0.07818   0.47722   0.09789 
C          C       0.56364   0.78982   0.78144 
H          H       0.54849   0.82120   0.74532 
C          C       0.60405   0.78976   0.88643 
H          H       0.61858   0.82054   0.93328 
C          C       0.45664   0.69177   0.41488 
H          H       0.42247   0.70547   0.45206 
C          C       0.45670   0.65493   0.30852 
H          H       0.42318   0.64142   0.26248 
C          C       0.69371   0.78970   0.43985 
H          H       0.68242   0.82065   0.38382 
C          C       0.72133   0.78986   0.58833 
H          H       0.73049   0.82179   0.63794 
C          C       0.45676   0.56363   0.77484 
H          H       0.42306   0.57573   0.82544 
C          C       0.45659   0.53292   0.64234 
H          H       0.42182   0.52278   0.59789 
C          C       0.06364   0.28982   0.28144 
H          H       0.04849   0.32120   0.24532 
C          C       0.10405   0.28976   0.38643 
H          H       0.11858   0.32054   0.43328 
C          C       0.95664   0.19177   0.91488 
H          H       0.92247   0.20547   0.95206 
C          C       0.95670   0.15493   0.80852 
H          H       0.92318   0.14142   0.76248 
C          C       0.19371   0.28970   0.93985 
H          H       0.18242   0.32065   0.88382 
C          C       0.22133   0.28986   0.08833 
H          H       0.23049   0.32179   0.13794 
C          C       0.95676   0.06363   0.27484 
H          H       0.92306   0.07573   0.32544 
C          C       0.95659   0.03292   0.14234 
H          H       0.92182   0.02278   0.09789 
C          C       0.56364   0.21018   0.21856 
H          H       0.54849   0.17880   0.25468 
C          C       0.60405   0.21024   0.11357 
H          H       0.61858   0.17946   0.06672 
C          C       0.45664   0.30823   0.58512 
H          H       0.42247   0.29453   0.54794 
C          C       0.45670   0.34507   0.69148 
H          H       0.42318   0.35858   0.73752 
C          C       0.69371   0.21030   0.56015 
H          H       0.68242   0.17935   0.61618 
C          C       0.72133   0.21014   0.41167 
H          H       0.73049   0.17821   0.36206 
C          C       0.45676   0.43637   0.22516 
H          H       0.42306   0.42427   0.17456 
C          C       0.45659   0.46708   0.35766 
H          H       0.42182   0.47722   0.40211 
C          C       0.06364   0.71018   0.71856 
H          H       0.04849   0.67880   0.75468 
C          C       0.10405   0.71024   0.61357 
H          H       0.11858   0.67946   0.56672 
C          C       0.95664   0.80823   0.08512 
H          H       0.92247   0.79453   0.04794 
C          C       0.95670   0.84507   0.19148 
H          H       0.92318   0.85858   0.23752 
C          C       0.19371   0.71030   0.06015 
H          H       0.18242   0.67935   0.11618 
C          C       0.22133   0.71014   0.91167 
H          H       0.23049   0.67821   0.86206 
C          C       0.95676   0.93637   0.72516 
H          H       0.92306   0.92427   0.67456 
C          C       0.95659   0.96708   0.85766 
H          H       0.92182   0.97722   0.90211 
C          C       0.43636   0.28982   0.21856 
H          H       0.45151   0.32120   0.25468 
C          C       0.39595   0.28976   0.11357 
H          H       0.38142   0.32054   0.06672 
C          C       0.54336   0.19177   0.58512 
H          H       0.57753   0.20547   0.54794 
C          C       0.54330   0.15493   0.69148 
H          H       0.57682   0.14142   0.73752 
C          C       0.30629   0.28970   0.56015 
H          H       0.31758   0.32065   0.61618 
C          C       0.27867   0.28986   0.41167 
H          H       0.26951   0.32179   0.36206 
C          C       0.54324   0.06363   0.22516 
H          H       0.57694   0.07573   0.17456 
C          C       0.54341   0.03292   0.35766 
H          H       0.57818   0.02278   0.40211 
C          C       0.93636   0.78982   0.71856 
H          H       0.95151   0.82120   0.75468 
C          C       0.89595   0.78976   0.61357 
H          H       0.88142   0.82054   0.56672 
C          C       0.04336   0.69177   0.08512 
H          H       0.07753   0.70547   0.04794 
C          C       0.04330   0.65493   0.19148 
H          H       0.07682   0.64142   0.23752 
C          C       0.80629   0.78970   0.06015 
H          H       0.81758   0.82065   0.11618 
C          C       0.77867   0.78986   0.91167 
H          H       0.76951   0.82179   0.86206 
C          C       0.04324   0.56363   0.72516 
H          H       0.07694   0.57573   0.67456 
C          C       0.04341   0.53292   0.85766 
H          H       0.07818   0.52278   0.90211 
C          C       0.56364   0.28982   0.21856 
H          H       0.54849   0.32120   0.25468 
C          C       0.60405   0.28976   0.11357 
H          H       0.61858   0.32054   0.06672 
C          C       0.45664   0.19177   0.58512 
H          H       0.42247   0.20547   0.54794 
C          C       0.45670   0.15493   0.69148 
H          H       0.42318   0.14142   0.73752 
C          C       0.69371   0.28970   0.56015 
H          H       0.68242   0.32065   0.61618 
C          C       0.72133   0.28986   0.41167 
H          H       0.73049   0.32179   0.36206 
C          C       0.45676   0.06363   0.22516 
H          H       0.42306   0.07573   0.17456 
C          C       0.45659   0.03292   0.35766 
H          H       0.42182   0.02278   0.40211 
C          C       0.06364   0.78982   0.71856 
H          H       0.04849   0.82120   0.75468 
C          C       0.10405   0.78976   0.61357 
H          H       0.11858   0.82054   0.56672 
C          C       0.95664   0.69177   0.08512 
H          H       0.92247   0.70547   0.04794 
C          C       0.95670   0.65493   0.19148 
H          H       0.92318   0.64142   0.23752 
C          C       0.19371   0.78970   0.06015 
H          H       0.18242   0.82065   0.11618 
C          C       0.22133   0.78986   0.91167 
H          H       0.23049   0.82179   0.86206 
C          C       0.95676   0.56363   0.72516 
H          H       0.92306   0.57573   0.67456 
C          C       0.95659   0.53292   0.85766 
H          H       0.92182   0.52278   0.90211 
C          C       0.43636   0.21018   0.21856 
H          H       0.45151   0.17880   0.25468 
C          C       0.39595   0.21024   0.11357 
H          H       0.38142   0.17946   0.06672 
C          C       0.54336   0.30823   0.58512 
H          H       0.57753   0.29453   0.54794 
C          C       0.54330   0.34507   0.69148 
H          H       0.57682   0.35858   0.73752 
C          C       0.30629   0.21030   0.56015 
H          H       0.31758   0.17935   0.61618 
C          C       0.27867   0.21014   0.41167 
H          H       0.26951   0.17821   0.36206 
C          C       0.54324   0.43637   0.22516 
H          H       0.57694   0.42427   0.17456 
C          C       0.54341   0.46708   0.35766 
H          H       0.57818   0.47722   0.40211 
C          C       0.93636   0.71018   0.71856 
H          H       0.95151   0.67880   0.75468 
C          C       0.89595   0.71024   0.61357 
H          H       0.88142   0.67946   0.56672 
C          C       0.04336   0.80823   0.08512 
H          H       0.07753   0.79453   0.04794 
C          C       0.04330   0.84507   0.19148 
H          H       0.07682   0.85858   0.23752 
C          C       0.80629   0.71030   0.06015 
H          H       0.81758   0.67935   0.11618 
C          C       0.77867   0.71014   0.91167 
H          H       0.76951   0.67821   0.86206 
C          C       0.04324   0.93637   0.72516 
H          H       0.07694   0.92427   0.67456 
C          C       0.04341   0.96708   0.85766 
H          H       0.07818   0.97722   0.90211 
C          C       0.43636   0.78982   0.78144 
H          H       0.45151   0.82120   0.74532 
C          C       0.39595   0.78976   0.88643 
H          H       0.38142   0.82054   0.93328 
C          C       0.54336   0.69177   0.41488 
H          H       0.57753   0.70547   0.45206 
C          C       0.54330   0.65493   0.30852 
H          H       0.57682   0.64142   0.26248 
C          C       0.30629   0.78970   0.43985 
H          H       0.31758   0.82065   0.38382 
C          C       0.27867   0.78986   0.58833 
H          H       0.26951   0.82179   0.63794 
C          C       0.54324   0.56363   0.77484 
H          H       0.57694   0.57573   0.82544 
C          C       0.54341   0.53292   0.64234 
H          H       0.57818   0.52278   0.59789 
C          C       0.93636   0.28982   0.28144 
H          H       0.95151   0.32120   0.24532 
C          C       0.89595   0.28976   0.38643 
H          H       0.88142   0.32054   0.43328 
C          C       0.04336   0.19177   0.91488 
H          H       0.07753   0.20547   0.95206 
C          C       0.04330   0.15493   0.80852 
H          H       0.07682   0.14142   0.76248 
C          C       0.80629   0.28970   0.93985 
H          H       0.81758   0.32065   0.88382 
C          C       0.77867   0.28986   0.08833 
H          H       0.76951   0.32179   0.13794 
C          C       0.04324   0.06363   0.27484 
H          H       0.07694   0.07573   0.32544 
C          C       0.04341   0.03292   0.14234 
H          H       0.07818   0.02278   0.09789 
C          C       0.56364   0.71018   0.78144 
H          H       0.54849   0.67880   0.74532 
C          C       0.60405   0.71024   0.88643 
H          H       0.61858   0.67946   0.93328 
C          C       0.45664   0.80823   0.41488 
H          H       0.42247   0.79453   0.45206 
C          C       0.45670   0.84507   0.30852 
H          H       0.42318   0.85858   0.26248 
C          C       0.69371   0.71030   0.43985 
H          H       0.68242   0.67935   0.38382 
C          C       0.72133   0.71014   0.58833 
H          H       0.73049   0.67821   0.63794 
C          C       0.45676   0.93637   0.77484 
H          H       0.42306   0.92427   0.82544 
C          C       0.45659   0.96708   0.64234 
H          H       0.42182   0.97722   0.59789 
C          C       0.06364   0.21018   0.28144 
H          H       0.04849   0.17880   0.24532 
C          C       0.10405   0.21024   0.38643 
H          H       0.11858   0.17946   0.43328 
C          C       0.95664   0.30823   0.91488 
H          H       0.92247   0.29453   0.95206 
C          C       0.95670   0.34507   0.80852 
H          H       0.92318   0.35858   0.76248 
C          C       0.19371   0.21030   0.93985 
H          H       0.18242   0.17935   0.88382 
C          C       0.22133   0.21014   0.08833 
H          H       0.23049   0.17821   0.13794 
C          C       0.95676   0.43637   0.27484 
H          H       0.92306   0.42427   0.32544 
C          C       0.95659   0.46708   0.14234 
H          H       0.92182   0.47722   0.09789 
N          N       0.33976   0.75000   0.06753 
C          C       0.45612   0.75000   0.71982 
C          C       0.37535   0.75000   0.93728 
C          C       0.35399   0.75000   0.22442 
H          H       0.39187   0.75000   0.25280 
C          C       0.32013   0.75000   0.36575 
C          C       0.26444   0.75000   0.66819 
N          N       0.83976   0.25000   0.56753 
C          C       0.95612   0.25000   0.21982 
C          C       0.87535   0.25000   0.43728 
C          C       0.85399   0.25000   0.72442 
H          H       0.89187   0.25000   0.75280 
C          C       0.82013   0.25000   0.86575 
C          C       0.76444   0.25000   0.16819 
N          N       0.66024   0.75000   0.06753 
C          C       0.54388   0.75000   0.71982 
C          C       0.62465   0.75000   0.93728 
C          C       0.64601   0.75000   0.22442 
H          H       0.60813   0.75000   0.25280 
C          C       0.67987   0.75000   0.36575 
C          C       0.73556   0.75000   0.66819 
N          N       0.16024   0.25000   0.56753 
C          C       0.04388   0.25000   0.21982 
C          C       0.12465   0.25000   0.43728 
C          C       0.14601   0.25000   0.72442 
H          H       0.10813   0.25000   0.75280 
C          C       0.17987   0.25000   0.86575 
C          C       0.23556   0.25000   0.16819 
N          N       0.66024   0.25000   0.93247 
C          C       0.54388   0.25000   0.28018 
C          C       0.62465   0.25000   0.06272 
C          C       0.64601   0.25000   0.77558 
H          H       0.60813   0.25000   0.74720 
C          C       0.67987   0.25000   0.63425 
C          C       0.73556   0.25000   0.33181 
N          N       0.16024   0.75000   0.43247 
C          C       0.04388   0.75000   0.78018 
C          C       0.12465   0.75000   0.56272 
C          C       0.14601   0.75000   0.27558 
H          H       0.10813   0.75000   0.24720 
C          C       0.17987   0.75000   0.13425 
C          C       0.23556   0.75000   0.83181 
N          N       0.33976   0.25000   0.93247 
C          C       0.45612   0.25000   0.28018 
C          C       0.37535   0.25000   0.06272 
C          C       0.35399   0.25000   0.77558 
H          H       0.39187   0.25000   0.74720 
C          C       0.32013   0.25000   0.63425 
C          C       0.26444   0.25000   0.33181 
N          N       0.83976   0.75000   0.43247 
C          C       0.95612   0.75000   0.78018 
C          C       0.87535   0.75000   0.56272 
C          C       0.85399   0.75000   0.27558 
H          H       0.89187   0.75000   0.24720 
C          C       0.82013   0.75000   0.13425 
C          C       0.76444   0.75000   0.83181 
N          N       0.50000   0.89806   0.13319 
C          C       0.50000   0.79021   0.47703 
C          C       0.50000   0.86388   0.25741 
C          C       0.50000   0.88750   0.97350 
H          H       0.50000   0.85330   0.93618 
C          C       0.50000   0.92122   0.84156 
C          C       0.50000   0.98338   0.57201 
N          N       0.00000   0.39806   0.63319 
C          C       0.00000   0.29021   0.97703 
C          C       0.00000   0.36388   0.75741 
C          C       0.00000   0.38750   0.47350 
H          H       0.00000   0.35330   0.43618 
C          C       0.00000   0.42122   0.34156 
C          C       0.00000   0.48338   0.07201 
N          N       0.50000   0.60194   0.13319 
C          C       0.50000   0.70979   0.47703 
C          C       0.50000   0.63612   0.25741 
C          C       0.50000   0.61250   0.97350 
H          H       0.50000   0.64670   0.93618 
C          C       0.50000   0.57878   0.84156 
C          C       0.50000   0.51662   0.57201 
N          N       0.00000   0.10194   0.63319 
C          C       0.00000   0.20979   0.97703 
C          C       0.00000   0.13612   0.75741 
C          C       0.00000   0.11250   0.47350 
H          H       0.00000   0.14670   0.43618 
C          C       0.00000   0.07878   0.34156 
C          C       0.00000   0.01662   0.07201 
N          N       0.50000   0.39806   0.86681 
C          C       0.50000   0.29021   0.52297 
C          C       0.50000   0.36388   0.74259 
C          C       0.50000   0.38750   0.02650 
H          H       0.50000   0.35330   0.06382 
C          C       0.50000   0.42122   0.15844 
C          C       0.50000   0.48338   0.42799 
N          N       0.00000   0.89806   0.36681 
C          C       0.00000   0.79021   0.02297 
C          C       0.00000   0.86388   0.24259 
C          C       0.00000   0.88750   0.52650 
H          H       0.00000   0.85330   0.56382 
C          C       0.00000   0.92122   0.65844 
C          C       0.00000   0.98338   0.92799 
N          N       0.50000   0.10194   0.86681 
C          C       0.50000   0.20979   0.52297 
C          C       0.50000   0.13612   0.74259 
C          C       0.50000   0.11250   0.02650 
H          H       0.50000   0.14670   0.06382 
C          C       0.50000   0.07878   0.15844 
C          C       0.50000   0.01662   0.42799 
N          N       0.00000   0.60194   0.36681 
C          C       0.00000   0.70979   0.02297 
C          C       0.00000   0.63612   0.24259 
C          C       0.00000   0.61250   0.52650 
H          H       0.00000   0.64670   0.56382 
C          C       0.00000   0.57878   0.65844 
C          C       0.00000   0.51662   0.92799 
C          C       0.50000   0.75000   0.59859 
C          C       0.00000   0.25000   0.09859 
C          C       0.50000   0.25000   0.40141 
C          C       0.00000   0.75000   0.90141 
