data_PCTF-2
_audit_creation_date              0000-00-00
_audit_creation_method            'LanYouShi'
_symmetry_space_group_name_H-M    'P1'
_cell_length_a                    26.9780006
_cell_length_b                    47.3569984
_cell_length_c                    4.2270999
_cell_angle_alpha                 90.0000000
_cell_angle_beta                  90.6110001
_cell_angle_gamma                 90.0000000
loop_
_atom_site_label
_atom_site_type_symbol
_atom_site_fract_x
_atom_site_fract_y
_atom_site_fract_z
_atom_site_U_iso_or_equiv
_atom_site_adp_type
_atom_site_occupancy
        C4          C  0.5440841  0.6900079  0.5191802    0.00000       Uiso       1.00
        C4          C  0.0440841  0.1900079  0.5191802    0.00000       Uiso       1.00
        C4          C  0.4559159  0.6900079  0.4808199    0.00000       Uiso       1.00
        C4          C  0.9559159  0.1900079  0.4808199    0.00000       Uiso       1.00
        C4          C  0.5000000  0.7335463  0.5000000    0.00000       Uiso       1.00
        C4          C  0.0000000  0.2335463  0.5000000    0.00000       Uiso       1.00
        N4          N  0.5428646  0.7186382  0.5190256    0.00000       Uiso       1.00
        N4          N  0.0428647  0.2186382  0.5190256    0.00000       Uiso       1.00
        N4          N  0.4571353  0.7186382  0.4809744    0.00000       Uiso       1.00
        N4          N  0.9571353  0.2186382  0.4809744    0.00000       Uiso       1.00
        N4          N  0.5000000  0.6763524  0.5000000    0.00000       Uiso       1.00
        N4          N  0.0000000  0.1763524  0.5000000    0.00000       Uiso       1.00
        C1          C  0.5893627  0.6749333  0.5364863    0.00000       Uiso       1.00
        C2          C  0.0893627  0.1749333  0.5364863    0.00000       Uiso       1.00
        C3          C  0.4106373  0.6749333  0.4635137    0.00000       Uiso       1.00
        C4          C  0.9106373  0.1749333  0.4635137    0.00000       Uiso       1.00
        C5          C  0.5000000  0.7634324  0.5000000    0.00000       Uiso       1.00
        C6          C  0.0000000  0.2634325  0.5000000    0.00000       Uiso       1.00
        C7          C  0.6354923  0.6886888  0.4938796    0.00000       Uiso       1.00
        C8          C  0.1354924  0.1886887  0.4938796    0.00000       Uiso       1.00
        C9          C  0.3645076  0.6886888  0.5061203    0.00000       Uiso       1.00
       C10          C  0.8645076  0.1886887  0.5061203    0.00000       Uiso       1.00
       C11          C  0.4580442  0.7789694  0.3969453    0.00000       Uiso       1.00
       C12          C  0.9580442  0.2789694  0.3969453    0.00000       Uiso       1.00
       C13          C  0.5419557  0.7789694  0.6030548    0.00000       Uiso       1.00
       C14          C  0.0419558  0.2789694  0.6030548    0.00000       Uiso       1.00
       C15          C  0.4097305  0.6454365  0.4058186    0.00000       Uiso       1.00
       C16          C  0.9097306  0.1454364  0.4058186    0.00000       Uiso       1.00
       C17          C  0.5902694  0.6454365  0.5941814    0.00000       Uiso       1.00
       C18          C  0.0902695  0.1454364  0.5941814    0.00000       Uiso       1.00
       C19          C  0.6351088  0.6303030  0.6032678    0.00000       Uiso       1.00
       C20          C  0.1351088  0.1303030  0.6032678    0.00000       Uiso       1.00
       C21          C  0.3648912  0.6303030  0.3967322    0.00000       Uiso       1.00
       C22          C  0.8648912  0.1303030  0.3967322    0.00000       Uiso       1.00
       C23          C  0.5421296  0.8086958  0.5973613    0.00000       Uiso       1.00
       C24          C  0.0421297  0.3086958  0.5973613    0.00000       Uiso       1.00
       C25          C  0.4578703  0.8086958  0.4026388    0.00000       Uiso       1.00
       C26          C  0.9578703  0.3086958  0.4026388    0.00000       Uiso       1.00
       C27          C  0.3196015  0.6736161  0.4937708    0.00000       Uiso       1.00
       C28          C  0.8196015  0.1736161  0.4937708    0.00000       Uiso       1.00
       C29          C  0.6803985  0.6736161  0.5062292    0.00000       Uiso       1.00
       C30          C  0.1803985  0.1736161  0.5062292    0.00000       Uiso       1.00
       C31          C  0.9557557  0.5539228  0.5142452    0.00000       Uiso       1.00
       C32          C  0.4557557  0.0539228  0.5142452    0.00000       Uiso       1.00
       C33          C  0.0442443  0.5539228  0.4857548    0.00000       Uiso       1.00
       C34          C  0.5442443  0.0539228  0.4857548    0.00000       Uiso       1.00
       C35          C  0.9155666  0.5448941  0.7030379    0.00000       Uiso       1.00
       C36          C  0.4155667  0.0448941  0.7030379    0.00000       Uiso       1.00
       C37          C  0.0844333  0.5448941  0.2969621    0.00000       Uiso       1.00
       C38          C  0.5844333  0.0448941  0.2969621    0.00000       Uiso       1.00
       C39          C  0.8700935  0.5594468  0.7127596    0.00000       Uiso       1.00
       C40          C  0.3700935  0.0594467  0.7127596    0.00000       Uiso       1.00
       C41          C  0.1299065  0.5594468  0.2872405    0.00000       Uiso       1.00
       C42          C  0.6299065  0.0594467  0.2872405    0.00000       Uiso       1.00
       C43          C  0.8636468  0.5847167  0.5406572    0.00000       Uiso       1.00
       C44          C  0.3636468  0.0847167  0.5406572    0.00000       Uiso       1.00
       C45          C  0.1363532  0.5847167  0.4593429    0.00000       Uiso       1.00
       C46          C  0.6363531  0.0847167  0.4593429    0.00000       Uiso       1.00
       C47          C  0.9034192  0.5948532  0.3599234    0.00000       Uiso       1.00
       C48          C  0.4034192  0.0948532  0.3599234    0.00000       Uiso       1.00
       C49          C  0.0965808  0.5948532  0.6400766    0.00000       Uiso       1.00
       C50          C  0.5965808  0.0948532  0.6400766    0.00000       Uiso       1.00
       C51          C  0.9479196  0.5794578  0.3443596    0.00000       Uiso       1.00
       C52          C  0.4479196  0.0794578  0.3443596    0.00000       Uiso       1.00
       C53          C  0.0520804  0.5794578  0.6556404    0.00000       Uiso       1.00
       C54          C  0.5520804  0.0794578  0.6556404    0.00000       Uiso       1.00
        H1          H  0.9193423  0.5272406  0.8370736    0.00000       Uiso       1.00
        H2          H  0.4193424  0.0272406  0.8370736    0.00000       Uiso       1.00
        H3          H  0.0806576  0.5272406  0.1629265    0.00000       Uiso       1.00
        H4          H  0.5806576  0.0272406  0.1629265    0.00000       Uiso       1.00
        H5          H  0.8420895  0.5516794  0.8491364    0.00000       Uiso       1.00
        H6          H  0.3420895  0.0516794  0.8491364    0.00000       Uiso       1.00
        H7          H  0.1579105  0.5516794  0.1508636    0.00000       Uiso       1.00
        H8          H  0.6579104  0.0516794  0.1508636    0.00000       Uiso       1.00
        H9          H  0.9001830  0.6133276  0.2358029    0.00000       Uiso       1.00
       H10          H  0.4001831  0.1133276  0.2358029    0.00000       Uiso       1.00
       H11          H  0.0998170  0.6133276  0.7641971    0.00000       Uiso       1.00
       H12          H  0.5998170  0.1133276  0.7641971    0.00000       Uiso       1.00
       H13          H  0.9751790  0.5873220  0.2064806    0.00000       Uiso       1.00
       H14          H  0.4751790  0.0873220  0.2064806    0.00000       Uiso       1.00
       H15          H  0.0248210  0.5873220  0.7935194    0.00000       Uiso       1.00
       H16          H  0.5248210  0.0873220  0.7935194    0.00000       Uiso       1.00
       C55          C  0.9598446  0.4931707  0.3803742    0.00000       Uiso       1.00
       C56          C  0.4598446  0.9931707  0.3803742    0.00000       Uiso       1.00
       C57          C  0.0401554  0.4931707  0.6196259    0.00000       Uiso       1.00
       C58          C  0.5401554  0.9931707  0.6196259    0.00000       Uiso       1.00
       C59          C  0.9591677  0.4634438  0.3872586    0.00000       Uiso       1.00
       C60          C  0.4591677  0.9634438  0.3872586    0.00000       Uiso       1.00
       C61          C  0.0408323  0.4634438  0.6127414    0.00000       Uiso       1.00
       C62          C  0.5408323  0.9634438  0.6127414    0.00000       Uiso       1.00
       H17          H  0.9295020  0.5029634  0.2876733    0.00000       Uiso       1.00
       H18          H  0.4295020  0.0029634  0.2876733    0.00000       Uiso       1.00
       H19          H  0.0704980  0.5029634  0.7123267    0.00000       Uiso       1.00
       H20          H  0.5704980  0.0029634  0.7123267    0.00000       Uiso       1.00
       H21          H  0.9275020  0.4539946  0.3079650    0.00000       Uiso       1.00
       H22          H  0.4275020  0.9539946  0.3079650    0.00000       Uiso       1.00
       H23          H  0.0724980  0.4539946  0.6920350    0.00000       Uiso       1.00
       H24          H  0.5724980  0.9539946  0.6920350    0.00000       Uiso       1.00
       C63          C  0.8183517  0.5993885  0.5474173    0.00000       Uiso       1.00
       C64          C  0.3183517  0.0993885  0.5474173    0.00000       Uiso       1.00
       C65          C  0.1816483  0.5993885  0.4525827    0.00000       Uiso       1.00
       C66          C  0.6816483  0.0993885  0.4525827    0.00000       Uiso       1.00
       C67          C  0.7769673  0.5893207  0.3753865    0.00000       Uiso       1.00
       C68          C  0.2769674  0.0893206  0.3753865    0.00000       Uiso       1.00
       C69          C  0.2230326  0.5893207  0.6246135    0.00000       Uiso       1.00
       C70          C  0.7230326  0.0893206  0.6246135    0.00000       Uiso       1.00
       C71          C  0.7315933  0.6040032  0.3796321    0.00000       Uiso       1.00
       C72          C  0.2315934  0.1040032  0.3796321    0.00000       Uiso       1.00
       C73          C  0.2684067  0.6040032  0.6203679    0.00000       Uiso       1.00
       C74          C  0.7684066  0.1040032  0.6203679    0.00000       Uiso       1.00
       C75          C  0.7261575  0.6289877  0.5591138    0.00000       Uiso       1.00
       C76          C  0.2261575  0.1289877  0.5591138    0.00000       Uiso       1.00
       C77          C  0.2738425  0.6289877  0.4408862    0.00000       Uiso       1.00
       C78          C  0.7738425  0.1289877  0.4408862    0.00000       Uiso       1.00
       C79          C  0.7673788  0.6384242  0.7393988    0.00000       Uiso       1.00
       C80          C  0.2673788  0.1384241  0.7393988    0.00000       Uiso       1.00
       C81          C  0.2326212  0.6384242  0.2606012    0.00000       Uiso       1.00
       C82          C  0.7326212  0.1384241  0.2606012    0.00000       Uiso       1.00
       C83          C  0.8130211  0.6241239  0.7300950    0.00000       Uiso       1.00
       C84          C  0.3130211  0.1241239  0.7300950    0.00000       Uiso       1.00
       C85          C  0.1869789  0.6241239  0.2699051    0.00000       Uiso       1.00
       C86          C  0.6869789  0.1241239  0.2699051    0.00000       Uiso       1.00
       H25          H  0.7797597  0.5713618  0.2434676    0.00000       Uiso       1.00
       H26          H  0.2797597  0.0713618  0.2434676    0.00000       Uiso       1.00
       H27          H  0.2202403  0.5713618  0.7565324    0.00000       Uiso       1.00
       H28          H  0.7202403  0.0713618  0.7565324    0.00000       Uiso       1.00
       H29          H  0.7024359  0.5962944  0.2514032    0.00000       Uiso       1.00
       H30          H  0.2024359  0.0962944  0.2514032    0.00000       Uiso       1.00
       H31          H  0.2975641  0.5962944  0.7485968    0.00000       Uiso       1.00
       H32          H  0.7975640  0.0962944  0.7485968    0.00000       Uiso       1.00
       H33          H  0.7641845  0.6554692  0.8871956    0.00000       Uiso       1.00
       H34          H  0.2641845  0.1554692  0.8871956    0.00000       Uiso       1.00
       H35          H  0.2358155  0.6554692  0.1128044    0.00000       Uiso       1.00
       H36          H  0.7358155  0.1554692  0.1128044    0.00000       Uiso       1.00
       H37          H  0.8419269  0.6316729  0.8629979    0.00000       Uiso       1.00
       H38          H  0.3419270  0.1316728  0.8629979    0.00000       Uiso       1.00
       H39          H  0.1580730  0.6316729  0.1370021    0.00000       Uiso       1.00
       H40          H  0.6580730  0.1316728  0.1370021    0.00000       Uiso       1.00
       C87          C  0.0342940  0.4008220  0.6816546    0.00000       Uiso       1.00
       C88          C  0.5342941  0.9008220  0.6816546    0.00000       Uiso       1.00
       C89          C  0.9657059  0.4008220  0.3183454    0.00000       Uiso       1.00
       C90          C  0.4657059  0.9008220  0.3183454    0.00000       Uiso       1.00
       C91          C  0.0341732  0.3710959  0.6835284    0.00000       Uiso       1.00
       C92          C  0.5341732  0.8710959  0.6835284    0.00000       Uiso       1.00
       C93          C  0.9658268  0.3710959  0.3164715    0.00000       Uiso       1.00
       C94          C  0.4658268  0.8710959  0.3164715    0.00000       Uiso       1.00
       H41          H  0.0600493  0.4102440  0.8245518    0.00000       Uiso       1.00
       H42          H  0.5600493  0.9102440  0.8245518    0.00000       Uiso       1.00
       H43          H  0.9399506  0.4102440  0.1754483    0.00000       Uiso       1.00
       H44          H  0.4399507  0.9102440  0.1754483    0.00000       Uiso       1.00
       H45          H  0.0593817  0.3616028  0.8312430    0.00000       Uiso       1.00
       H46          H  0.5593817  0.8616028  0.8312430    0.00000       Uiso       1.00
       H47          H  0.9406183  0.3616028  0.1687570    0.00000       Uiso       1.00
       H48          H  0.4406182  0.8616028  0.1687570    0.00000       Uiso       1.00
        N1          N  0.0000000  0.5389267  0.5000000    0.00000       Uiso       1.00
        N2          N  0.5000000  0.0389266  0.5000000    0.00000       Uiso       1.00
       C95          C  0.0000000  0.5094473  0.5000000    0.00000       Uiso       1.00
       C96          C  0.5000000  0.0094473  0.5000000    0.00000       Uiso       1.00
       C97          C  0.0000000  0.4472716  0.5000000    0.00000       Uiso       1.00
       C98          C  0.5000000  0.9472715  0.5000000    0.00000       Uiso       1.00
       C99          C  0.0000000  0.4169679  0.5000000    0.00000       Uiso       1.00
      C100          C  0.5000000  0.9169680  0.5000000    0.00000       Uiso       1.00
      C101          C  0.0000000  0.3550191  0.5000000    0.00000       Uiso       1.00
      C102          C  0.5000000  0.8550191  0.5000000    0.00000       Uiso       1.00
        H1          H  0.6368534  0.7099265  0.4491840    0.00000       Uiso       1.00
        H1          H  0.1368534  0.2099265  0.4491840    0.00000       Uiso       1.00
        H1          H  0.3631466  0.7099265  0.5508161    0.00000       Uiso       1.00
        H1          H  0.8631465  0.2099265  0.5508161    0.00000       Uiso       1.00
        H1          H  0.4269652  0.7687340  0.3155805    0.00000       Uiso       1.00
        H1          H  0.9269652  0.2687339  0.3155805    0.00000       Uiso       1.00
        H1          H  0.5730348  0.7687340  0.6844196    0.00000       Uiso       1.00
        H1          H  0.0730348  0.2687339  0.6844196    0.00000       Uiso       1.00
        H1          H  0.4420219  0.6345879  0.3697802    0.00000       Uiso       1.00
        H1          H  0.9420218  0.1345880  0.3697802    0.00000       Uiso       1.00
        H1          H  0.5579781  0.6345879  0.6302198    0.00000       Uiso       1.00
        H1          H  0.0579781  0.1345880  0.6302198    0.00000       Uiso       1.00
       C12          C  0.6809448  0.6441294  0.5585281    0.00000       Uiso       1.00
       C12          C  0.1809448  0.1441294  0.5585281    0.00000       Uiso       1.00
       C12          C  0.3190552  0.6441294  0.4414720    0.00000       Uiso       1.00
       C12          C  0.8190551  0.1441294  0.4414720    0.00000       Uiso       1.00
       C12          C  0.5000000  0.8247409  0.5000000    0.00000       Uiso       1.00
       C12          C  0.0000000  0.3247409  0.5000000    0.00000       Uiso       1.00
        H1          H  0.7128979  0.6843507  0.4721794    0.00000       Uiso       1.00
        H2          H  0.6340764  0.6089826  0.6440489    0.00000       Uiso       1.00
        H1          H  0.2128979  0.1843506  0.4721794    0.00000       Uiso       1.00
        H2          H  0.1340764  0.1089826  0.6440489    0.00000       Uiso       1.00
        H1          H  0.2871021  0.6843507  0.5278206    0.00000       Uiso       1.00
        H2          H  0.3659236  0.6089826  0.3559512    0.00000       Uiso       1.00
        H1          H  0.7871020  0.1843506  0.5278206    0.00000       Uiso       1.00
        H2          H  0.8659236  0.1089826  0.3559512    0.00000       Uiso       1.00
        H1          H  0.4255896  0.8182993  0.3341737    0.00000       Uiso       1.00
        H1          H  0.9255896  0.3182992  0.3341737    0.00000       Uiso       1.00
        H1          H  0.5744104  0.8182993  0.6658263    0.00000       Uiso       1.00
        H1          H  0.0744104  0.3182992  0.6658263    0.00000       Uiso       1.00
