data_crystal
 
_cell_length_a    26.97800
_cell_length_b    47.35700
_cell_length_c    4.22710
_cell_angle_alpha 90.00000
_cell_angle_beta  90.61100
_cell_angle_gamma 90.00000
 
_symmetry_space_group_name_Hall 'P 1'
_symmetry_space_group_name_H-M  'P 1'
 
loop_
_symmetry_equiv_pos_as_xyz
 'x,y,z' 
 
loop_
_atom_site_label
_atom_site_type_symbol
_atom_site_fract_x
_atom_site_fract_y
_atom_site_fract_z
_atom_site_charge
C          C       0.54408   0.69001   0.51918   0.0000000000
C          C       0.04408   0.19001   0.51918   0.0000000000
C          C       0.45592   0.69001   0.48082   0.0000000000
C          C       0.95592   0.19001   0.48082   0.0000000000
C          C       0.50000   0.73355   0.50000   0.0000000000
C          C       0.00000   0.23355   0.50000   0.0000000000
N          N       0.54286   0.71864   0.51903   0.0000000000
N          N       0.04286   0.21864   0.51903   0.0000000000
N          N       0.45714   0.71864   0.48097   0.0000000000
N          N       0.95714   0.21864   0.48097   0.0000000000
N          N       0.50000   0.67635   0.50000   0.0000000000
N          N       0.00000   0.17635   0.50000   0.0000000000
C          C       0.58936   0.67493   0.53649   0.0000000000
C          C       0.08936   0.17493   0.53649   0.0000000000
C          C       0.41064   0.67493   0.46351   0.0000000000
C          C       0.91064   0.17493   0.46351   0.0000000000
C          C       0.50000   0.76343   0.50000   0.0000000000
C          C       0.00000   0.26343   0.50000   0.0000000000
C          C       0.63549   0.68869   0.49388   0.0000000000
C          C       0.13549   0.18869   0.49388   0.0000000000
C          C       0.36451   0.68869   0.50612   0.0000000000
C          C       0.86451   0.18869   0.50612   0.0000000000
C          C       0.45804   0.77897   0.39695   0.0000000000
C          C       0.95804   0.27897   0.39695   0.0000000000
C          C       0.54196   0.77897   0.60305   0.0000000000
C          C       0.04196   0.27897   0.60305   0.0000000000
C          C       0.40973   0.64544   0.40582   0.0000000000
C          C       0.90973   0.14544   0.40582   0.0000000000
C          C       0.59027   0.64544   0.59418   0.0000000000
C          C       0.09027   0.14544   0.59418   0.0000000000
C          C       0.63511   0.63030   0.60327   0.0000000000
C          C       0.13511   0.13030   0.60327   0.0000000000
C          C       0.36489   0.63030   0.39673   0.0000000000
C          C       0.86489   0.13030   0.39673   0.0000000000
C          C       0.54213   0.80870   0.59736   0.0000000000
C          C       0.04213   0.30870   0.59736   0.0000000000
C          C       0.45787   0.80870   0.40264   0.0000000000
C          C       0.95787   0.30870   0.40264   0.0000000000
C          C       0.31960   0.67362   0.49377   0.0000000000
C          C       0.81960   0.17362   0.49377   0.0000000000
C          C       0.68040   0.67362   0.50623   0.0000000000
C          C       0.18040   0.17362   0.50623   0.0000000000
C          C       0.95576   0.55392   0.51425   0.0000000000
C          C       0.45576   0.05392   0.51425   0.0000000000
C          C       0.04424   0.55392   0.48575   0.0000000000
C          C       0.54424   0.05392   0.48575   0.0000000000
C          C       0.91557   0.54489   0.70304   0.0000000000
C          C       0.41557   0.04489   0.70304   0.0000000000
C          C       0.08443   0.54489   0.29696   0.0000000000
C          C       0.58443   0.04489   0.29696   0.0000000000
C          C       0.87009   0.55945   0.71276   0.0000000000
C          C       0.37009   0.05945   0.71276   0.0000000000
C          C       0.12991   0.55945   0.28724   0.0000000000
C          C       0.62991   0.05945   0.28724   0.0000000000
C          C       0.86365   0.58472   0.54066   0.0000000000
C          C       0.36365   0.08472   0.54066   0.0000000000
C          C       0.13635   0.58472   0.45934   0.0000000000
C          C       0.63635   0.08472   0.45934   0.0000000000
C          C       0.90342   0.59485   0.35992   0.0000000000
C          C       0.40342   0.09485   0.35992   0.0000000000
C          C       0.09658   0.59485   0.64008   0.0000000000
C          C       0.59658   0.09485   0.64008   0.0000000000
C          C       0.94792   0.57946   0.34436   0.0000000000
C          C       0.44792   0.07946   0.34436   0.0000000000
C          C       0.05208   0.57946   0.65564   0.0000000000
C          C       0.55208   0.07946   0.65564   0.0000000000
H          H       0.91934   0.52724   0.83707   0.0000000000
H          H       0.41934   0.02724   0.83707   0.0000000000
H          H       0.08066   0.52724   0.16293   0.0000000000
H          H       0.58066   0.02724   0.16293   0.0000000000
H          H       0.84209   0.55168   0.84914   0.0000000000
H          H       0.34209   0.05168   0.84914   0.0000000000
H          H       0.15791   0.55168   0.15086   0.0000000000
H          H       0.65791   0.05168   0.15086   0.0000000000
H          H       0.90018   0.61333   0.23580   0.0000000000
H          H       0.40018   0.11333   0.23580   0.0000000000
H          H       0.09982   0.61333   0.76420   0.0000000000
H          H       0.59982   0.11333   0.76420   0.0000000000
H          H       0.97518   0.58732   0.20648   0.0000000000
H          H       0.47518   0.08732   0.20648   0.0000000000
H          H       0.02482   0.58732   0.79352   0.0000000000
H          H       0.52482   0.08732   0.79352   0.0000000000
C          C       0.95984   0.49317   0.38037   0.0000000000
C          C       0.45984   0.99317   0.38037   0.0000000000
C          C       0.04016   0.49317   0.61963   0.0000000000
C          C       0.54016   0.99317   0.61963   0.0000000000
C          C       0.95917   0.46344   0.38726   0.0000000000
C          C       0.45917   0.96344   0.38726   0.0000000000
C          C       0.04083   0.46344   0.61274   0.0000000000
C          C       0.54083   0.96344   0.61274   0.0000000000
H          H       0.92950   0.50296   0.28767   0.0000000000
H          H       0.42950   0.00296   0.28767   0.0000000000
H          H       0.07050   0.50296   0.71233   0.0000000000
H          H       0.57050   0.00296   0.71233   0.0000000000
H          H       0.92750   0.45399   0.30796   0.0000000000
H          H       0.42750   0.95399   0.30796   0.0000000000
H          H       0.07250   0.45399   0.69203   0.0000000000
H          H       0.57250   0.95399   0.69203   0.0000000000
C          C       0.81835   0.59939   0.54742   0.0000000000
C          C       0.31835   0.09939   0.54742   0.0000000000
C          C       0.18165   0.59939   0.45258   0.0000000000
C          C       0.68165   0.09939   0.45258   0.0000000000
C          C       0.77697   0.58932   0.37539   0.0000000000
C          C       0.27697   0.08932   0.37539   0.0000000000
C          C       0.22303   0.58932   0.62461   0.0000000000
C          C       0.72303   0.08932   0.62461   0.0000000000
C          C       0.73159   0.60400   0.37963   0.0000000000
C          C       0.23159   0.10400   0.37963   0.0000000000
C          C       0.26841   0.60400   0.62037   0.0000000000
C          C       0.76841   0.10400   0.62037   0.0000000000
C          C       0.72616   0.62899   0.55911   0.0000000000
C          C       0.22616   0.12899   0.55911   0.0000000000
C          C       0.27384   0.62899   0.44089   0.0000000000
C          C       0.77384   0.12899   0.44089   0.0000000000
C          C       0.76738   0.63842   0.73940   0.0000000000
C          C       0.26738   0.13842   0.73940   0.0000000000
C          C       0.23262   0.63842   0.26060   0.0000000000
C          C       0.73262   0.13842   0.26060   0.0000000000
C          C       0.81302   0.62412   0.73010   0.0000000000
C          C       0.31302   0.12412   0.73010   0.0000000000
C          C       0.18698   0.62412   0.26991   0.0000000000
C          C       0.68698   0.12412   0.26991   0.0000000000
H          H       0.77976   0.57136   0.24347   0.0000000000
H          H       0.27976   0.07136   0.24347   0.0000000000
H          H       0.22024   0.57136   0.75653   0.0000000000
H          H       0.72024   0.07136   0.75653   0.0000000000
H          H       0.70244   0.59629   0.25140   0.0000000000
H          H       0.20244   0.09629   0.25140   0.0000000000
H          H       0.29756   0.59629   0.74860   0.0000000000
H          H       0.79756   0.09629   0.74860   0.0000000000
H          H       0.76418   0.65547   0.88720   0.0000000000
H          H       0.26418   0.15547   0.88720   0.0000000000
H          H       0.23582   0.65547   0.11280   0.0000000000
H          H       0.73582   0.15547   0.11280   0.0000000000
H          H       0.84193   0.63167   0.86300   0.0000000000
H          H       0.34193   0.13167   0.86300   0.0000000000
H          H       0.15807   0.63167   0.13700   0.0000000000
H          H       0.65807   0.13167   0.13700   0.0000000000
C          C       0.03429   0.40082   0.68165   0.0000000000
C          C       0.53429   0.90082   0.68165   0.0000000000
C          C       0.96571   0.40082   0.31835   0.0000000000
C          C       0.46571   0.90082   0.31835   0.0000000000
C          C       0.03417   0.37110   0.68353   0.0000000000
C          C       0.53417   0.87110   0.68353   0.0000000000
C          C       0.96583   0.37110   0.31647   0.0000000000
C          C       0.46583   0.87110   0.31647   0.0000000000
H          H       0.06005   0.41024   0.82455   0.0000000000
H          H       0.56005   0.91024   0.82455   0.0000000000
H          H       0.93995   0.41024   0.17545   0.0000000000
H          H       0.43995   0.91024   0.17545   0.0000000000
H          H       0.05938   0.36160   0.83124   0.0000000000
H          H       0.55938   0.86160   0.83124   0.0000000000
H          H       0.94062   0.36160   0.16876   0.0000000000
H          H       0.44062   0.86160   0.16876   0.0000000000
N          N       0.00000   0.53893   0.50000   0.0000000000
N          N       0.50000   0.03893   0.50000   0.0000000000
C          C       0.00000   0.50945   0.50000   0.0000000000
C          C       0.50000   0.00945   0.50000   0.0000000000
C          C       0.00000   0.44727   0.50000   0.0000000000
C          C       0.50000   0.94727   0.50000   0.0000000000
C          C       0.00000   0.41697   0.50000   0.0000000000
C          C       0.50000   0.91697   0.50000   0.0000000000
C          C       0.00000   0.35502   0.50000   0.0000000000
C          C       0.50000   0.85502   0.50000   0.0000000000
H          H       0.63685   0.70993   0.44918   0.0000000000
H          H       0.13685   0.20993   0.44918   0.0000000000
H          H       0.36315   0.70993   0.55082   0.0000000000
H          H       0.86315   0.20993   0.55082   0.0000000000
H          H       0.42697   0.76873   0.31558   0.0000000000
H          H       0.92697   0.26873   0.31558   0.0000000000
H          H       0.57303   0.76873   0.68442   0.0000000000
H          H       0.07303   0.26873   0.68442   0.0000000000
H          H       0.44202   0.63459   0.36978   0.0000000000
H          H       0.94202   0.13459   0.36978   0.0000000000
H          H       0.55798   0.63459   0.63022   0.0000000000
H          H       0.05798   0.13459   0.63022   0.0000000000
C          C       0.68094   0.64413   0.55853   0.0000000000
C          C       0.18094   0.14413   0.55853   0.0000000000
C          C       0.31906   0.64413   0.44147   0.0000000000
C          C       0.81906   0.14413   0.44147   0.0000000000
C          C       0.50000   0.82474   0.50000   0.0000000000
C          C       0.00000   0.32474   0.50000   0.0000000000
H          H       0.71290   0.68435   0.47218   0.0000000000
H          H       0.63408   0.60898   0.64405   0.0000000000
H          H       0.21290   0.18435   0.47218   0.0000000000
H          H       0.13408   0.10898   0.64405   0.0000000000
H          H       0.28710   0.68435   0.52782   0.0000000000
H          H       0.36592   0.60898   0.35595   0.0000000000
H          H       0.78710   0.18435   0.52782   0.0000000000
H          H       0.86592   0.10898   0.35595   0.0000000000
H          H       0.42559   0.81830   0.33417   0.0000000000
H          H       0.92559   0.31830   0.33417   0.0000000000
H          H       0.57441   0.81830   0.66583   0.0000000000
H          H       0.07441   0.31830   0.66583   0.0000000000
