data_crystal

_cell_length_a    36.29600
_cell_length_b    36.29600
_cell_length_c    6.98560
_cell_angle_alpha 90.00000
_cell_angle_beta  90.00000
_cell_angle_gamma 120.00000

_space_group_name_Hall 'P 1'
_space_group_name_H-M_alt  'P 1'

loop_
_symmetry_equiv_pos_as_xyz
'x,y,z' 

loop_
_atom_site_label
_atom_site_type_symbol
_atom_site_fract_x
_atom_site_fract_y
_atom_site_fract_z
N          N       0.44642   0.55367   0.25000 
N          N       0.44633   0.89275   0.25000 
N          N       0.10725   0.55358   0.25000 
N          N       0.55358   0.44633   0.25000 
N          N       0.55367   0.10725   0.25000 
N          N       0.89275   0.44642   0.25000 
C          C       0.53954   0.53953   0.25000 
C          C       0.46047   0.00001   0.25000 
C          C       0.99999   0.46046   0.25000 
C          C       0.46046   0.46047   0.25000 
C          C       0.53953   0.99999   0.25000 
C          C       0.00001   0.53954   0.25000 
C          C       0.53822   0.49998   0.25000 
C          C       0.50002   0.03825   0.25000 
C          C       0.96175   0.46177   0.25000 
C          C       0.46177   0.50002   0.25000 
C          C       0.49998   0.96175   0.25000 
C          C       0.03825   0.53822   0.25000 
C          C       0.50000   0.46177   0.25000 
C          C       0.53823   0.03823   0.25000 
C          C       0.96177   0.50000   0.25000 
C          C       0.50000   0.53823   0.25000 
C          C       0.46177   0.96177   0.25000 
C          C       0.03823   0.50000   0.25000 
C          C       0.35510   0.71041   0.25000 
C          C       0.28959   0.64469   0.25000 
C          C       0.35531   0.64489   0.25000 
C          C       0.64489   0.28959   0.25000 
C          C       0.71041   0.35531   0.25000 
C          C       0.64469   0.35510   0.25000 
N          N       0.31199   0.68781   0.25000 
N          N       0.31219   0.62418   0.25000 
N          N       0.37582   0.68801   0.25000 
N          N       0.68800   0.31219   0.25000 
N          N       0.68781   0.37582   0.25000 
N          N       0.62418   0.31199   0.25000 
C          C       0.37762   0.75547   0.25000 
C          C       0.24453   0.62215   0.25000 
C          C       0.37785   0.62238   0.25000 
C          C       0.62238   0.24453   0.25000 
C          C       0.75547   0.37785   0.25000 
C          C       0.62215   0.37762   0.25000 
C          C       0.35650   0.57746   0.25000 
C          C       0.42253   0.77903   0.25000 
C          C       0.22096   0.64350   0.25000 
C          C       0.64350   0.42253   0.25000 
C          C       0.57746   0.22096   0.25000 
C          C       0.77903   0.35650   0.25000 
C          C       0.37904   0.55522   0.25000 
C          C       0.44478   0.82381   0.25000 
C          C       0.17618   0.62096   0.25000 
C          C       0.62096   0.44478   0.25000 
C          C       0.55522   0.17618   0.25000 
C          C       0.82381   0.37904   0.25000 
C          C       0.42430   0.57581   0.25000 
C          C       0.42419   0.84849   0.25000 
C          C       0.15151   0.57570   0.25000 
C          C       0.57570   0.42419   0.25000 
C          C       0.57581   0.15151   0.25000 
C          C       0.84849   0.42430   0.25000 
C          C       0.44493   0.62107   0.25000 
C          C       0.37893   0.82386   0.25000 
C          C       0.17614   0.55507   0.25000 
C          C       0.55507   0.37893   0.25000 
C          C       0.62107   0.17614   0.25000 
C          C       0.82386   0.44493   0.25000 
C          C       0.42275   0.64366   0.25000 
C          C       0.35634   0.77909   0.25000 
C          C       0.22091   0.57725   0.25000 
C          C       0.57725   0.35634   0.25000 
C          C       0.64366   0.22091   0.25000 
C          C       0.77909   0.42275   0.25000 
H          H       0.32393   0.56031   0.25000 
H          H       0.43969   0.76363   0.25000 
H          H       0.23637   0.67607   0.25000 
H          H       0.67607   0.43969   0.25000 
H          H       0.56031   0.23637   0.25000 
H          H       0.76363   0.32393   0.25000 
H          H       0.36068   0.52310   0.25000 
H          H       0.47690   0.83757   0.25000 
H          H       0.16243   0.63932   0.25000 
H          H       0.63932   0.47690   0.25000 
H          H       0.52310   0.16243   0.25000 
H          H       0.83757   0.36068   0.25000 
H          H       0.47706   0.63946   0.25000 
H          H       0.36054   0.83760   0.25000 
H          H       0.16240   0.52294   0.25000 
H          H       0.52294   0.36054   0.25000 
H          H       0.63946   0.16240   0.25000 
H          H       0.83760   0.47706   0.25000 
H          H       0.44004   0.67621   0.25000 
H          H       0.32379   0.76383   0.25000 
H          H       0.23617   0.55996   0.25000 
H          H       0.55996   0.32379   0.25000 
H          H       0.67621   0.23617   0.25000 
H          H       0.76383   0.44004   0.25000 
C          C       0.57026   0.48966   0.25000 
C          C       0.51027   0.42970   0.25000 
H          H       0.56769   0.56767   0.25000 
O          O       0.60829   0.51888   0.25000 
O          O       0.48102   0.39167   0.25000 
C          C       0.51034   0.08061   0.25000 
C          C       0.57030   0.08057   0.25000 
H          H       0.43233   0.00002   0.25000 
O          O       0.48112   0.08941   0.25000 
O          O       0.60832   0.08935   0.25000 
C          C       0.91939   0.42974   0.25000 
C          C       0.91943   0.48973   0.25000 
H          H       0.99998   0.43231   0.25000 
O          O       0.91059   0.39171   0.25000 
O          O       0.91065   0.51897   0.25000 
C          C       0.42974   0.51034   0.25000 
C          C       0.48973   0.57030   0.25000 
H          H       0.43231   0.43233   0.25000 
O          O       0.39171   0.48112   0.25000 
O          O       0.51897   0.60832   0.25000 
C          C       0.48966   0.91939   0.25000 
C          C       0.42970   0.91943   0.25000 
H          H       0.56767   0.99998   0.25000 
O          O       0.51888   0.91059   0.25000 
O          O       0.39167   0.91065   0.25000 
C          C       0.08061   0.57026   0.25000 
C          C       0.08057   0.51027   0.25000 
H          H       0.00002   0.56769   0.25000 
O          O       0.08941   0.60829   0.25000 
O          O       0.08935   0.48102   0.25000 
N          N       0.44642   0.55367   0.75000 
N          N       0.44633   0.89275   0.75000 
N          N       0.10725   0.55358   0.75000 
N          N       0.55358   0.44633   0.75000 
N          N       0.55367   0.10725   0.75000 
N          N       0.89275   0.44642   0.75000 
C          C       0.53954   0.53953   0.75000 
C          C       0.46047   0.00001   0.75000 
C          C       0.99999   0.46046   0.75000 
C          C       0.46046   0.46047   0.75000 
C          C       0.53953   0.99999   0.75000 
C          C       0.00001   0.53954   0.75000 
C          C       0.53822   0.49998   0.75000 
C          C       0.50002   0.03825   0.75000 
C          C       0.96175   0.46177   0.75000 
C          C       0.46177   0.50002   0.75000 
C          C       0.49998   0.96175   0.75000 
C          C       0.03825   0.53822   0.75000 
C          C       0.50000   0.46177   0.75000 
C          C       0.53823   0.03823   0.75000 
C          C       0.96177   0.50000   0.75000 
C          C       0.50000   0.53823   0.75000 
C          C       0.46177   0.96177   0.75000 
C          C       0.03823   0.50000   0.75000 
C          C       0.35510   0.71041   0.75000 
C          C       0.28959   0.64469   0.75000 
C          C       0.35531   0.64489   0.75000 
C          C       0.64489   0.28959   0.75000 
C          C       0.71041   0.35531   0.75000 
C          C       0.64469   0.35510   0.75000 
N          N       0.31199   0.68781   0.75000 
N          N       0.31219   0.62418   0.75000 
N          N       0.37582   0.68801   0.75000 
N          N       0.68800   0.31219   0.75000 
N          N       0.68781   0.37582   0.75000 
N          N       0.62418   0.31199   0.75000 
C          C       0.37762   0.75547   0.75000 
C          C       0.24453   0.62215   0.75000 
C          C       0.37785   0.62238   0.75000 
C          C       0.62238   0.24453   0.75000 
C          C       0.75547   0.37785   0.75000 
C          C       0.62215   0.37762   0.75000 
C          C       0.35650   0.57746   0.75000 
C          C       0.42253   0.77903   0.75000 
C          C       0.22096   0.64350   0.75000 
C          C       0.64350   0.42253   0.75000 
C          C       0.57746   0.22096   0.75000 
C          C       0.77903   0.35650   0.75000 
C          C       0.37904   0.55522   0.75000 
C          C       0.44478   0.82381   0.75000 
C          C       0.17618   0.62096   0.75000 
C          C       0.62096   0.44478   0.75000 
C          C       0.55522   0.17618   0.75000 
C          C       0.82381   0.37904   0.75000 
C          C       0.42430   0.57581   0.75000 
C          C       0.42419   0.84849   0.75000 
C          C       0.15151   0.57570   0.75000 
C          C       0.57570   0.42419   0.75000 
C          C       0.57581   0.15151   0.75000 
C          C       0.84849   0.42430   0.75000 
C          C       0.44493   0.62107   0.75000 
C          C       0.37893   0.82386   0.75000 
C          C       0.17614   0.55507   0.75000 
C          C       0.55507   0.37893   0.75000 
C          C       0.62107   0.17614   0.75000 
C          C       0.82386   0.44493   0.75000 
C          C       0.42275   0.64366   0.75000 
C          C       0.35634   0.77909   0.75000 
C          C       0.22091   0.57725   0.75000 
C          C       0.57725   0.35634   0.75000 
C          C       0.64366   0.22091   0.75000 
C          C       0.77909   0.42275   0.75000 
H          H       0.32393   0.56031   0.75000 
H          H       0.43969   0.76363   0.75000 
H          H       0.23637   0.67607   0.75000 
H          H       0.67607   0.43969   0.75000 
H          H       0.56031   0.23637   0.75000 
H          H       0.76363   0.32393   0.75000 
H          H       0.36068   0.52310   0.75000 
H          H       0.47690   0.83757   0.75000 
H          H       0.16243   0.63932   0.75000 
H          H       0.63932   0.47690   0.75000 
H          H       0.52310   0.16243   0.75000 
H          H       0.83757   0.36068   0.75000 
H          H       0.47706   0.63946   0.75000 
H          H       0.36054   0.83760   0.75000 
H          H       0.16240   0.52294   0.75000 
H          H       0.52294   0.36054   0.75000 
H          H       0.63946   0.16240   0.75000 
H          H       0.83760   0.47706   0.75000 
H          H       0.44004   0.67621   0.75000 
H          H       0.32379   0.76383   0.75000 
H          H       0.23617   0.55996   0.75000 
H          H       0.55996   0.32379   0.75000 
H          H       0.67621   0.23617   0.75000 
H          H       0.76383   0.44004   0.75000 
C          C       0.57026   0.48966   0.75000 
C          C       0.51027   0.42970   0.75000 
H          H       0.56769   0.56767   0.75000 
O          O       0.60829   0.51888   0.75000 
O          O       0.48102   0.39167   0.75000 
C          C       0.51034   0.08061   0.75000 
C          C       0.57030   0.08057   0.75000 
H          H       0.43233   0.00002   0.75000 
O          O       0.48112   0.08941   0.75000 
O          O       0.60832   0.08935   0.75000 
C          C       0.91939   0.42974   0.75000 
C          C       0.91943   0.48973   0.75000 
H          H       0.99998   0.43231   0.75000 
O          O       0.91059   0.39171   0.75000 
O          O       0.91065   0.51897   0.75000 
C          C       0.42974   0.51034   0.75000 
C          C       0.48973   0.57030   0.75000 
H          H       0.43231   0.43233   0.75000 
O          O       0.39171   0.48112   0.75000 
O          O       0.51897   0.60832   0.75000 
C          C       0.48966   0.91939   0.75000 
C          C       0.42970   0.91943   0.75000 
H          H       0.56767   0.99998   0.75000 
O          O       0.51888   0.91059   0.75000 
O          O       0.39167   0.91065   0.75000 
C          C       0.08061   0.57026   0.75000 
C          C       0.08057   0.51027   0.75000 
H          H       0.00002   0.56769   0.75000 
O          O       0.08941   0.60829   0.75000 
O          O       0.08935   0.48102   0.75000 
