data_crystal
 
_cell_length_a    37.52500
_cell_length_b    37.52500
_cell_length_c    10.84600
_cell_angle_alpha 90.00000
_cell_angle_beta  90.00000
_cell_angle_gamma 120.00000
 
_symmetry_space_group_name_Hall 'P 1'
_symmetry_space_group_name_H-M  'P 1'
 
loop_
_symmetry_equiv_pos_as_xyz
 'x,y,z' 
 
loop_
_atom_site_label
_atom_site_type_symbol
_atom_site_fract_x
_atom_site_fract_y
_atom_site_fract_z
_atom_site_charge
C          C       0.70945   0.35938   0.17671   0.0000000000
C          C       0.68339   0.37609   0.17705   0.0000000000
C          C       0.75308   0.38595   0.16150   0.0000000000
C          C       0.78934   0.40806   0.14275   0.0000000000
C          C       0.83219   0.43428   0.11358   0.0000000000
C          C       0.84536   0.47267   0.05999   0.0000000000
C          C       0.88654   0.49798   0.02076   0.0000000000
C          C       0.91371   0.48188   0.03140   0.0000000000
C          C       0.90077   0.44406   0.09388   0.0000000000
C          C       0.85989   0.42042   0.13237   0.0000000000
C          C       0.90003   0.53997  -0.04242   0.0000000000
C          C       0.87092   0.55703  -0.01167   0.0000000000
C          C       0.89916   0.53404  -0.18268   0.0000000000
C          C       0.94403   0.57333  -0.00282   0.0000000000
C          C       0.92850   0.42759   0.11908   0.0000000000
N          N       0.96635   0.45149   0.15361   0.0000000000
C          C       0.99428   0.43599   0.18171   0.0000000000
O          O       0.95197   0.50232  -0.02739   0.0000000000
H          H       0.69634   0.40917   0.17233   0.0000000000
H          H       0.82253   0.48181   0.04732   0.0000000000
H          H       0.84945   0.39083   0.17618   0.0000000000
H          H       0.86703   0.55796   0.08953   0.0000000000
H          H       0.84024   0.53839  -0.05531   0.0000000000
H          H       0.88326   0.58874  -0.04814   0.0000000000
H          H       0.86759   0.51111  -0.21292   0.0000000000
H          H       0.92034   0.52295  -0.21136   0.0000000000
H          H       0.90845   0.56360  -0.23037   0.0000000000
H          H       0.96801   0.57122  -0.05660   0.0000000000
H          H       0.94925   0.57081   0.09660   0.0000000000
H          H       0.94972   0.60493  -0.02017   0.0000000000
H          H       0.91579   0.39452   0.11672   0.0000000000
H          H       0.02247   0.45259   0.12446   0.0000000000
H          H       0.97988   0.40270   0.15876   0.0000000000
H          H       0.96491   0.48482  -0.04430   0.0000000000
C          C       0.64062   0.35007   0.17671   0.0000000000
C          C       0.62391   0.30730   0.17705   0.0000000000
C          C       0.61405   0.36713   0.16150   0.0000000000
C          C       0.59194   0.38128   0.14275   0.0000000000
C          C       0.56572   0.39791   0.11358   0.0000000000
C          C       0.52733   0.37269   0.05999   0.0000000000
C          C       0.50202   0.38856   0.02076   0.0000000000
C          C       0.51812   0.43183   0.03140   0.0000000000
C          C       0.55594   0.45671   0.09388   0.0000000000
C          C       0.57958   0.43947   0.13237   0.0000000000
C          C       0.46003   0.36006  -0.04242   0.0000000000
C          C       0.44297   0.31389  -0.01167   0.0000000000
C          C       0.46596   0.36512  -0.18268   0.0000000000
C          C       0.42667   0.37070  -0.00282   0.0000000000
C          C       0.57241   0.50091   0.11908   0.0000000000
N          N       0.54851   0.51486   0.15361   0.0000000000
C          C       0.56401   0.55829   0.18171   0.0000000000
O          O       0.49768   0.44965  -0.02739   0.0000000000
H          H       0.59083   0.28717   0.17233   0.0000000000
H          H       0.51819   0.34072   0.04732   0.0000000000
H          H       0.60917   0.45862   0.17618   0.0000000000
H          H       0.44204   0.30907   0.08953   0.0000000000
H          H       0.46161   0.30185  -0.05531   0.0000000000
H          H       0.41126   0.29452  -0.04814   0.0000000000
H          H       0.48889   0.35648  -0.21292   0.0000000000
H          H       0.47705   0.39739  -0.21136   0.0000000000
H          H       0.43640   0.34485  -0.23037   0.0000000000
H          H       0.42878   0.39679  -0.05660   0.0000000000
H          H       0.42919   0.37844   0.09660   0.0000000000
H          H       0.39507   0.34479  -0.02017   0.0000000000
H          H       0.60548   0.52127   0.11672   0.0000000000
H          H       0.54741   0.56988   0.12446   0.0000000000
H          H       0.59730   0.57718   0.15876   0.0000000000
H          H       0.51518   0.48009  -0.04430   0.0000000000
C          C       0.64993   0.29055   0.17671   0.0000000000
C          C       0.69270   0.31661   0.17705   0.0000000000
C          C       0.63287   0.24692   0.16150   0.0000000000
C          C       0.61872   0.21066   0.14275   0.0000000000
C          C       0.60209   0.16781   0.11358   0.0000000000
C          C       0.62731   0.15464   0.05999   0.0000000000
C          C       0.61144   0.11346   0.02076   0.0000000000
C          C       0.56817   0.08629   0.03140   0.0000000000
C          C       0.54329   0.09923   0.09388   0.0000000000
C          C       0.56053   0.14011   0.13237   0.0000000000
C          C       0.63994   0.09997  -0.04242   0.0000000000
C          C       0.68611   0.12908  -0.01167   0.0000000000
C          C       0.63488   0.10084  -0.18268   0.0000000000
C          C       0.62930   0.05597  -0.00282   0.0000000000
C          C       0.49909   0.07150   0.11908   0.0000000000
N          N       0.48514   0.03365   0.15361   0.0000000000
C          C       0.44171   0.00572   0.18171   0.0000000000
O          O       0.55035   0.04803  -0.02739   0.0000000000
H          H       0.71283   0.30366   0.17233   0.0000000000
H          H       0.65928   0.17747   0.04732   0.0000000000
H          H       0.54138   0.15055   0.17618   0.0000000000
H          H       0.69093   0.13297   0.08953   0.0000000000
H          H       0.69815   0.15976  -0.05531   0.0000000000
H          H       0.70548   0.11674  -0.04814   0.0000000000
H          H       0.64352   0.13241  -0.21292   0.0000000000
H          H       0.60261   0.07966  -0.21136   0.0000000000
H          H       0.65515   0.09155  -0.23037   0.0000000000
H          H       0.60321   0.03199  -0.05660   0.0000000000
H          H       0.62156   0.05075   0.09660   0.0000000000
H          H       0.65521   0.05028  -0.02017   0.0000000000
H          H       0.47873   0.08421   0.11672   0.0000000000
H          H       0.43012   0.97753   0.12446   0.0000000000
H          H       0.42282   0.02012   0.15876   0.0000000000
H          H       0.51991   0.03509  -0.04430   0.0000000000
C          C       0.35938   0.70945   0.32329   0.0000000000
C          C       0.37609   0.68339   0.32294   0.0000000000
C          C       0.38595   0.75308   0.33850   0.0000000000
C          C       0.40806   0.78934   0.35725   0.0000000000
C          C       0.43428   0.83219   0.38642   0.0000000000
C          C       0.47267   0.84536   0.44000   0.0000000000
C          C       0.49798   0.88654   0.47924   0.0000000000
C          C       0.48188   0.91371   0.46860   0.0000000000
C          C       0.44406   0.90077   0.40612   0.0000000000
C          C       0.42042   0.85989   0.36762   0.0000000000
C          C       0.53997   0.90003   0.54242   0.0000000000
C          C       0.55703   0.87092   0.51167   0.0000000000
C          C       0.53404   0.89916   0.68268   0.0000000000
C          C       0.57333   0.94403   0.50282   0.0000000000
C          C       0.42759   0.92850   0.38092   0.0000000000
N          N       0.45149   0.96635   0.34639   0.0000000000
C          C       0.43599   0.99428   0.31829   0.0000000000
O          O       0.50232   0.95197   0.52739   0.0000000000
H          H       0.40917   0.69634   0.32767   0.0000000000
H          H       0.48181   0.82253   0.45268   0.0000000000
H          H       0.39083   0.84945   0.32382   0.0000000000
H          H       0.55796   0.86703   0.41047   0.0000000000
H          H       0.53839   0.84024   0.55532   0.0000000000
H          H       0.58874   0.88326   0.54814   0.0000000000
H          H       0.51111   0.86759   0.71293   0.0000000000
H          H       0.52295   0.92034   0.71137   0.0000000000
H          H       0.56360   0.90845   0.73037   0.0000000000
H          H       0.57122   0.96801   0.55660   0.0000000000
H          H       0.57081   0.94925   0.40339   0.0000000000
H          H       0.60493   0.94972   0.52018   0.0000000000
H          H       0.39452   0.91579   0.38328   0.0000000000
H          H       0.45259   0.02247   0.37554   0.0000000000
H          H       0.40270   0.97988   0.34124   0.0000000000
H          H       0.48482   0.96491   0.54430   0.0000000000
C          C       0.35007   0.64062   0.32329   0.0000000000
C          C       0.30730   0.62391   0.32294   0.0000000000
C          C       0.36713   0.61405   0.33850   0.0000000000
C          C       0.38128   0.59194   0.35725   0.0000000000
C          C       0.39791   0.56572   0.38642   0.0000000000
C          C       0.37269   0.52733   0.44000   0.0000000000
C          C       0.38856   0.50202   0.47924   0.0000000000
C          C       0.43183   0.51812   0.46860   0.0000000000
C          C       0.45671   0.55594   0.40612   0.0000000000
C          C       0.43947   0.57958   0.36762   0.0000000000
C          C       0.36006   0.46003   0.54242   0.0000000000
C          C       0.31389   0.44297   0.51167   0.0000000000
C          C       0.36512   0.46596   0.68268   0.0000000000
C          C       0.37070   0.42667   0.50282   0.0000000000
C          C       0.50091   0.57241   0.38092   0.0000000000
N          N       0.51486   0.54851   0.34639   0.0000000000
C          C       0.55829   0.56401   0.31829   0.0000000000
O          O       0.44965   0.49768   0.52739   0.0000000000
H          H       0.28717   0.59083   0.32767   0.0000000000
H          H       0.34072   0.51819   0.45268   0.0000000000
H          H       0.45862   0.60917   0.32382   0.0000000000
H          H       0.30907   0.44204   0.41047   0.0000000000
H          H       0.30185   0.46161   0.55532   0.0000000000
H          H       0.29452   0.41126   0.54814   0.0000000000
H          H       0.35648   0.48889   0.71293   0.0000000000
H          H       0.39739   0.47705   0.71137   0.0000000000
H          H       0.34485   0.43640   0.73037   0.0000000000
H          H       0.39679   0.42878   0.55660   0.0000000000
H          H       0.37844   0.42919   0.40339   0.0000000000
H          H       0.34479   0.39507   0.52018   0.0000000000
H          H       0.52127   0.60548   0.38328   0.0000000000
H          H       0.56988   0.54741   0.37554   0.0000000000
H          H       0.57718   0.59730   0.34124   0.0000000000
H          H       0.48009   0.51518   0.54430   0.0000000000
C          C       0.29055   0.64993   0.32329   0.0000000000
C          C       0.31661   0.69270   0.32294   0.0000000000
C          C       0.24692   0.63287   0.33850   0.0000000000
C          C       0.21066   0.61872   0.35725   0.0000000000
C          C       0.16781   0.60209   0.38642   0.0000000000
C          C       0.15464   0.62731   0.44000   0.0000000000
C          C       0.11346   0.61144   0.47924   0.0000000000
C          C       0.08629   0.56817   0.46860   0.0000000000
C          C       0.09923   0.54329   0.40612   0.0000000000
C          C       0.14011   0.56053   0.36762   0.0000000000
C          C       0.09997   0.63994   0.54242   0.0000000000
C          C       0.12908   0.68611   0.51167   0.0000000000
C          C       0.10084   0.63488   0.68268   0.0000000000
C          C       0.05597   0.62930   0.50282   0.0000000000
C          C       0.07150   0.49909   0.38092   0.0000000000
N          N       0.03365   0.48514   0.34639   0.0000000000
C          C       0.00572   0.44171   0.31829   0.0000000000
O          O       0.04803   0.55035   0.52739   0.0000000000
H          H       0.30366   0.71283   0.32767   0.0000000000
H          H       0.17747   0.65928   0.45268   0.0000000000
H          H       0.15055   0.54138   0.32382   0.0000000000
H          H       0.13297   0.69093   0.41047   0.0000000000
H          H       0.15976   0.69815   0.55532   0.0000000000
H          H       0.11674   0.70548   0.54814   0.0000000000
H          H       0.13241   0.64352   0.71293   0.0000000000
H          H       0.07966   0.60261   0.71137   0.0000000000
H          H       0.09155   0.65515   0.73037   0.0000000000
H          H       0.03199   0.60321   0.55660   0.0000000000
H          H       0.05075   0.62156   0.40339   0.0000000000
H          H       0.05028   0.65521   0.52018   0.0000000000
H          H       0.08421   0.47873   0.38328   0.0000000000
H          H       0.97753   0.43012   0.37554   0.0000000000
H          H       0.02012   0.42282   0.34124   0.0000000000
H          H       0.03509   0.51991   0.54430   0.0000000000
C          C       0.70945   0.35938   0.67671   0.0000000000
C          C       0.68339   0.37609   0.67705   0.0000000000
C          C       0.75308   0.38595   0.66150   0.0000000000
C          C       0.78934   0.40806   0.64275   0.0000000000
C          C       0.83219   0.43428   0.61358   0.0000000000
C          C       0.84536   0.47267   0.56000   0.0000000000
C          C       0.88654   0.49798   0.52076   0.0000000000
C          C       0.91371   0.48188   0.53140   0.0000000000
C          C       0.90077   0.44406   0.59388   0.0000000000
C          C       0.85989   0.42042   0.63238   0.0000000000
C          C       0.90003   0.53997   0.45758   0.0000000000
C          C       0.87092   0.55703   0.48833   0.0000000000
C          C       0.89916   0.53404   0.31732   0.0000000000
C          C       0.94403   0.57333   0.49718   0.0000000000
C          C       0.92850   0.42759   0.61908   0.0000000000
N          N       0.96635   0.45149   0.65361   0.0000000000
C          C       0.99428   0.43599   0.68171   0.0000000000
O          O       0.95197   0.50232   0.47260   0.0000000000
H          H       0.69634   0.40917   0.67232   0.0000000000
H          H       0.82253   0.48181   0.54732   0.0000000000
H          H       0.84945   0.39083   0.67618   0.0000000000
H          H       0.86703   0.55796   0.58953   0.0000000000
H          H       0.84024   0.53839   0.44468   0.0000000000
H          H       0.88326   0.58874   0.45186   0.0000000000
H          H       0.86759   0.51111   0.28708   0.0000000000
H          H       0.92034   0.52295   0.28863   0.0000000000
H          H       0.90845   0.56360   0.26963   0.0000000000
H          H       0.96801   0.57122   0.44340   0.0000000000
H          H       0.94925   0.57081   0.59661   0.0000000000
H          H       0.94972   0.60493   0.47982   0.0000000000
H          H       0.91579   0.39452   0.61672   0.0000000000
H          H       0.02247   0.45259   0.62446   0.0000000000
H          H       0.97988   0.40270   0.65876   0.0000000000
H          H       0.96491   0.48482   0.45569   0.0000000000
C          C       0.64062   0.35007   0.67671   0.0000000000
C          C       0.62391   0.30730   0.67705   0.0000000000
C          C       0.61405   0.36713   0.66150   0.0000000000
C          C       0.59194   0.38128   0.64275   0.0000000000
C          C       0.56572   0.39791   0.61358   0.0000000000
C          C       0.52733   0.37269   0.56000   0.0000000000
C          C       0.50202   0.38856   0.52076   0.0000000000
C          C       0.51812   0.43183   0.53140   0.0000000000
C          C       0.55594   0.45671   0.59388   0.0000000000
C          C       0.57958   0.43947   0.63238   0.0000000000
C          C       0.46003   0.36006   0.45758   0.0000000000
C          C       0.44297   0.31389   0.48833   0.0000000000
C          C       0.46596   0.36512   0.31732   0.0000000000
C          C       0.42667   0.37070   0.49718   0.0000000000
C          C       0.57241   0.50091   0.61908   0.0000000000
N          N       0.54851   0.51486   0.65361   0.0000000000
C          C       0.56401   0.55829   0.68171   0.0000000000
O          O       0.49768   0.44965   0.47260   0.0000000000
H          H       0.59083   0.28717   0.67232   0.0000000000
H          H       0.51819   0.34072   0.54732   0.0000000000
H          H       0.60917   0.45862   0.67618   0.0000000000
H          H       0.44204   0.30907   0.58953   0.0000000000
H          H       0.46161   0.30185   0.44468   0.0000000000
H          H       0.41126   0.29452   0.45186   0.0000000000
H          H       0.48889   0.35648   0.28708   0.0000000000
H          H       0.47705   0.39739   0.28863   0.0000000000
H          H       0.43640   0.34485   0.26963   0.0000000000
H          H       0.42878   0.39679   0.44340   0.0000000000
H          H       0.42919   0.37844   0.59661   0.0000000000
H          H       0.39507   0.34479   0.47982   0.0000000000
H          H       0.60548   0.52127   0.61672   0.0000000000
H          H       0.54741   0.56988   0.62446   0.0000000000
H          H       0.59730   0.57718   0.65876   0.0000000000
H          H       0.51518   0.48009   0.45569   0.0000000000
C          C       0.64993   0.29055   0.67671   0.0000000000
C          C       0.69270   0.31661   0.67705   0.0000000000
C          C       0.63287   0.24692   0.66150   0.0000000000
C          C       0.61872   0.21066   0.64275   0.0000000000
C          C       0.60209   0.16781   0.61358   0.0000000000
C          C       0.62731   0.15464   0.56000   0.0000000000
C          C       0.61144   0.11346   0.52076   0.0000000000
C          C       0.56817   0.08629   0.53140   0.0000000000
C          C       0.54329   0.09923   0.59388   0.0000000000
C          C       0.56053   0.14011   0.63238   0.0000000000
C          C       0.63994   0.09997   0.45758   0.0000000000
C          C       0.68611   0.12908   0.48833   0.0000000000
C          C       0.63488   0.10084   0.31732   0.0000000000
C          C       0.62930   0.05597   0.49718   0.0000000000
C          C       0.49909   0.07150   0.61908   0.0000000000
N          N       0.48514   0.03365   0.65361   0.0000000000
C          C       0.44171   0.00572   0.68171   0.0000000000
O          O       0.55035   0.04803   0.47260   0.0000000000
H          H       0.71283   0.30366   0.67232   0.0000000000
H          H       0.65928   0.17747   0.54732   0.0000000000
H          H       0.54138   0.15055   0.67618   0.0000000000
H          H       0.69093   0.13297   0.58953   0.0000000000
H          H       0.69815   0.15976   0.44468   0.0000000000
H          H       0.70548   0.11674   0.45186   0.0000000000
H          H       0.64352   0.13241   0.28708   0.0000000000
H          H       0.60261   0.07966   0.28863   0.0000000000
H          H       0.65515   0.09155   0.26963   0.0000000000
H          H       0.60321   0.03199   0.44340   0.0000000000
H          H       0.62156   0.05075   0.59661   0.0000000000
H          H       0.65521   0.05028   0.47982   0.0000000000
H          H       0.47873   0.08421   0.61672   0.0000000000
H          H       0.43012   0.97753   0.62446   0.0000000000
H          H       0.42282   0.02012   0.65876   0.0000000000
H          H       0.51991   0.03509   0.45569   0.0000000000
C          C       0.35938   0.70945   0.82329   0.0000000000
C          C       0.37609   0.68339   0.82294   0.0000000000
C          C       0.38595   0.75308   0.83850   0.0000000000
C          C       0.40806   0.78934   0.85725   0.0000000000
C          C       0.43428   0.83219   0.88642   0.0000000000
C          C       0.47267   0.84536   0.94000   0.0000000000
C          C       0.49798   0.88654   0.97924   0.0000000000
C          C       0.48188   0.91371   0.96860   0.0000000000
C          C       0.44406   0.90077   0.90612   0.0000000000
C          C       0.42042   0.85989   0.86762   0.0000000000
C          C       0.53997   0.90003   1.04242   0.0000000000
C          C       0.55703   0.87092   1.01167   0.0000000000
C          C       0.53404   0.89916   1.18268   0.0000000000
C          C       0.57333   0.94403   1.00282   0.0000000000
C          C       0.42759   0.92850   0.88092   0.0000000000
N          N       0.45149   0.96635   0.84639   0.0000000000
C          C       0.43599   0.99428   0.81829   0.0000000000
O          O       0.50232   0.95197   1.02739   0.0000000000
H          H       0.40917   0.69634   0.82767   0.0000000000
H          H       0.48181   0.82253   0.95268   0.0000000000
H          H       0.39083   0.84945   0.82382   0.0000000000
H          H       0.55796   0.86703   0.91047   0.0000000000
H          H       0.53839   0.84024   1.05532   0.0000000000
H          H       0.58874   0.88326   1.04814   0.0000000000
H          H       0.51111   0.86759   1.21293   0.0000000000
H          H       0.52295   0.92034   1.21137   0.0000000000
H          H       0.56360   0.90845   1.23037   0.0000000000
H          H       0.57122   0.96801   1.05660   0.0000000000
H          H       0.57081   0.94925   0.90339   0.0000000000
H          H       0.60493   0.94972   1.02017   0.0000000000
H          H       0.39452   0.91579   0.88328   0.0000000000
H          H       0.45259   0.02247   0.87554   0.0000000000
H          H       0.40270   0.97988   0.84124   0.0000000000
H          H       0.48482   0.96491   1.04430   0.0000000000
C          C       0.35007   0.64062   0.82329   0.0000000000
C          C       0.30730   0.62391   0.82294   0.0000000000
C          C       0.36713   0.61405   0.83850   0.0000000000
C          C       0.38128   0.59194   0.85725   0.0000000000
C          C       0.39791   0.56572   0.88642   0.0000000000
C          C       0.37269   0.52733   0.94000   0.0000000000
C          C       0.38856   0.50202   0.97924   0.0000000000
C          C       0.43183   0.51812   0.96860   0.0000000000
C          C       0.45671   0.55594   0.90612   0.0000000000
C          C       0.43947   0.57958   0.86762   0.0000000000
C          C       0.36006   0.46003   1.04242   0.0000000000
C          C       0.31389   0.44297   1.01167   0.0000000000
C          C       0.36512   0.46596   1.18268   0.0000000000
C          C       0.37070   0.42667   1.00282   0.0000000000
C          C       0.50091   0.57241   0.88092   0.0000000000
N          N       0.51486   0.54851   0.84639   0.0000000000
C          C       0.55829   0.56401   0.81829   0.0000000000
O          O       0.44965   0.49768   1.02739   0.0000000000
H          H       0.28717   0.59083   0.82767   0.0000000000
H          H       0.34072   0.51819   0.95268   0.0000000000
H          H       0.45862   0.60917   0.82382   0.0000000000
H          H       0.30907   0.44204   0.91047   0.0000000000
H          H       0.30185   0.46161   1.05532   0.0000000000
H          H       0.29452   0.41126   1.04814   0.0000000000
H          H       0.35648   0.48889   1.21293   0.0000000000
H          H       0.39739   0.47705   1.21137   0.0000000000
H          H       0.34485   0.43640   1.23037   0.0000000000
H          H       0.39679   0.42878   1.05660   0.0000000000
H          H       0.37844   0.42919   0.90339   0.0000000000
H          H       0.34479   0.39507   1.02017   0.0000000000
H          H       0.52127   0.60548   0.88328   0.0000000000
H          H       0.56988   0.54741   0.87554   0.0000000000
H          H       0.57718   0.59730   0.84124   0.0000000000
H          H       0.48009   0.51518   1.04430   0.0000000000
C          C       0.29055   0.64993   0.82329   0.0000000000
C          C       0.31661   0.69270   0.82294   0.0000000000
C          C       0.24692   0.63287   0.83850   0.0000000000
C          C       0.21066   0.61872   0.85725   0.0000000000
C          C       0.16781   0.60209   0.88642   0.0000000000
C          C       0.15464   0.62731   0.94000   0.0000000000
C          C       0.11346   0.61144   0.97924   0.0000000000
C          C       0.08629   0.56817   0.96860   0.0000000000
C          C       0.09923   0.54329   0.90612   0.0000000000
C          C       0.14011   0.56053   0.86762   0.0000000000
C          C       0.09997   0.63994   1.04242   0.0000000000
C          C       0.12908   0.68611   1.01167   0.0000000000
C          C       0.10084   0.63488   1.18268   0.0000000000
C          C       0.05597   0.62930   1.00282   0.0000000000
C          C       0.07150   0.49909   0.88092   0.0000000000
N          N       0.03365   0.48514   0.84639   0.0000000000
C          C       0.00572   0.44171   0.81829   0.0000000000
O          O       0.04803   0.55035   1.02739   0.0000000000
H          H       0.30366   0.71283   0.82767   0.0000000000
H          H       0.17747   0.65928   0.95268   0.0000000000
H          H       0.15055   0.54138   0.82382   0.0000000000
H          H       0.13297   0.69093   0.91047   0.0000000000
H          H       0.15976   0.69815   1.05532   0.0000000000
H          H       0.11674   0.70548   1.04814   0.0000000000
H          H       0.13241   0.64352   1.21293   0.0000000000
H          H       0.07966   0.60261   1.21137   0.0000000000
H          H       0.09155   0.65515   1.23037   0.0000000000
H          H       0.03199   0.60321   1.05660   0.0000000000
H          H       0.05075   0.62156   0.90339   0.0000000000
H          H       0.05028   0.65521   1.02017   0.0000000000
H          H       0.08421   0.47873   0.88328   0.0000000000
H          H       0.97753   0.43012   0.87554   0.0000000000
H          H       0.02012   0.42282   0.84124   0.0000000000
H          H       0.03509   0.51991   1.04430   0.0000000000
