data_crystal
 
_cell_length_a    37.52500
_cell_length_b    37.52500
_cell_length_c    5.42300
_cell_angle_alpha 90.00000
_cell_angle_beta  90.00000
_cell_angle_gamma 120.00000
 
_symmetry_space_group_name_Hall 'P 1'
_symmetry_space_group_name_H-M  'P 1'
 
loop_
_symmetry_equiv_pos_as_xyz
 'x,y,z' 
 
loop_
_atom_site_label
_atom_site_type_symbol
_atom_site_fract_x
_atom_site_fract_y
_atom_site_fract_z
_atom_site_charge
C          C       0.70945   0.35938   0.35342   0.0000000000
C          C       0.68339   0.37609   0.35411   0.0000000000
C          C       0.75308   0.38595   0.32300   0.0000000000
C          C       0.78934   0.40806   0.28550   0.0000000000
C          C       0.83219   0.43428   0.22716   0.0000000000
C          C       0.84536   0.47267   0.11999   0.0000000000
C          C       0.88654   0.49798   0.04152   0.0000000000
C          C       0.91371   0.48188   0.06280   0.0000000000
C          C       0.90077   0.44406   0.18776   0.0000000000
C          C       0.85989   0.42042   0.26475   0.0000000000
C          C       0.90003   0.53997  -0.08484   0.0000000000
C          C       0.87092   0.55703  -0.02335   0.0000000000
C          C       0.89916   0.53404  -0.36537   0.0000000000
C          C       0.94403   0.57333  -0.00564   0.0000000000
C          C       0.92850   0.42759   0.23817   0.0000000000
N          N       0.96635   0.45149   0.30722   0.0000000000
C          C       0.99428   0.43599   0.36341   0.0000000000
O          O       0.95197   0.50232  -0.05479   0.0000000000
H          H       0.69634   0.40917   0.34465   0.0000000000
H          H       0.82253   0.48181   0.09464   0.0000000000
H          H       0.84945   0.39083   0.35236   0.0000000000
H          H       0.86703   0.55796   0.17906   0.0000000000
H          H       0.84024   0.53839  -0.11063   0.0000000000
H          H       0.88326   0.58874  -0.09628   0.0000000000
H          H       0.86759   0.51111  -0.42585   0.0000000000
H          H       0.92034   0.52295  -0.42273   0.0000000000
H          H       0.90845   0.56360  -0.46075   0.0000000000
H          H       0.96801   0.57122  -0.11320   0.0000000000
H          H       0.94925   0.57081   0.19321   0.0000000000
H          H       0.94972   0.60493  -0.04035   0.0000000000
H          H       0.91579   0.39452   0.23344   0.0000000000
H          H       0.02247   0.45259   0.24892   0.0000000000
H          H       0.97988   0.40270   0.31752   0.0000000000
H          H       0.96491   0.48482  -0.08861   0.0000000000
C          C       0.64062   0.35007   0.35342   0.0000000000
C          C       0.62391   0.30730   0.35411   0.0000000000
C          C       0.61405   0.36713   0.32300   0.0000000000
C          C       0.59194   0.38128   0.28550   0.0000000000
C          C       0.56572   0.39791   0.22716   0.0000000000
C          C       0.52733   0.37269   0.11999   0.0000000000
C          C       0.50202   0.38856   0.04152   0.0000000000
C          C       0.51812   0.43183   0.06280   0.0000000000
C          C       0.55594   0.45671   0.18776   0.0000000000
C          C       0.57958   0.43947   0.26475   0.0000000000
C          C       0.46003   0.36006  -0.08484   0.0000000000
C          C       0.44297   0.31389  -0.02335   0.0000000000
C          C       0.46596   0.36512  -0.36537   0.0000000000
C          C       0.42667   0.37070  -0.00564   0.0000000000
C          C       0.57241   0.50091   0.23817   0.0000000000
N          N       0.54851   0.51486   0.30722   0.0000000000
C          C       0.56401   0.55829   0.36341   0.0000000000
O          O       0.49768   0.44965  -0.05479   0.0000000000
H          H       0.59083   0.28717   0.34465   0.0000000000
H          H       0.51819   0.34072   0.09464   0.0000000000
H          H       0.60917   0.45862   0.35236   0.0000000000
H          H       0.44204   0.30907   0.17906   0.0000000000
H          H       0.46161   0.30185  -0.11063   0.0000000000
H          H       0.41126   0.29452  -0.09628   0.0000000000
H          H       0.48889   0.35648  -0.42585   0.0000000000
H          H       0.47705   0.39739  -0.42273   0.0000000000
H          H       0.43640   0.34485  -0.46075   0.0000000000
H          H       0.42878   0.39679  -0.11320   0.0000000000
H          H       0.42919   0.37844   0.19321   0.0000000000
H          H       0.39507   0.34479  -0.04035   0.0000000000
H          H       0.60548   0.52127   0.23344   0.0000000000
H          H       0.54741   0.56988   0.24892   0.0000000000
H          H       0.59730   0.57718   0.31752   0.0000000000
H          H       0.51518   0.48009  -0.08861   0.0000000000
C          C       0.64993   0.29055   0.35342   0.0000000000
C          C       0.69270   0.31661   0.35411   0.0000000000
C          C       0.63287   0.24692   0.32300   0.0000000000
C          C       0.61872   0.21066   0.28550   0.0000000000
C          C       0.60209   0.16781   0.22716   0.0000000000
C          C       0.62731   0.15464   0.11999   0.0000000000
C          C       0.61144   0.11346   0.04152   0.0000000000
C          C       0.56817   0.08629   0.06280   0.0000000000
C          C       0.54329   0.09923   0.18776   0.0000000000
C          C       0.56053   0.14011   0.26475   0.0000000000
C          C       0.63994   0.09997  -0.08484   0.0000000000
C          C       0.68611   0.12908  -0.02335   0.0000000000
C          C       0.63488   0.10084  -0.36537   0.0000000000
C          C       0.62930   0.05597  -0.00564   0.0000000000
C          C       0.49909   0.07150   0.23817   0.0000000000
N          N       0.48514   0.03365   0.30722   0.0000000000
C          C       0.44171   0.00572   0.36341   0.0000000000
O          O       0.55035   0.04803  -0.05479   0.0000000000
H          H       0.71283   0.30366   0.34465   0.0000000000
H          H       0.65928   0.17747   0.09464   0.0000000000
H          H       0.54138   0.15055   0.35236   0.0000000000
H          H       0.69093   0.13297   0.17906   0.0000000000
H          H       0.69815   0.15976  -0.11063   0.0000000000
H          H       0.70548   0.11674  -0.09628   0.0000000000
H          H       0.64352   0.13241  -0.42585   0.0000000000
H          H       0.60261   0.07966  -0.42273   0.0000000000
H          H       0.65515   0.09155  -0.46075   0.0000000000
H          H       0.60321   0.03199  -0.11320   0.0000000000
H          H       0.62156   0.05075   0.19321   0.0000000000
H          H       0.65521   0.05028  -0.04035   0.0000000000
H          H       0.47873   0.08421   0.23344   0.0000000000
H          H       0.43012   0.97753   0.24892   0.0000000000
H          H       0.42282   0.02012   0.31752   0.0000000000
H          H       0.51991   0.03509  -0.08861   0.0000000000
C          C       0.35938   0.70945   0.64658   0.0000000000
C          C       0.37609   0.68339   0.64589   0.0000000000
C          C       0.38595   0.75308   0.67700   0.0000000000
C          C       0.40806   0.78934   0.71450   0.0000000000
C          C       0.43428   0.83219   0.77284   0.0000000000
C          C       0.47267   0.84536   0.88001   0.0000000000
C          C       0.49798   0.88654   0.95848   0.0000000000
C          C       0.48188   0.91371   0.93720   0.0000000000
C          C       0.44406   0.90077   0.81224   0.0000000000
C          C       0.42042   0.85989   0.73525   0.0000000000
C          C       0.53997   0.90003   1.08484   0.0000000000
C          C       0.55703   0.87092   1.02335   0.0000000000
C          C       0.53404   0.89916   1.36537   0.0000000000
C          C       0.57333   0.94403   1.00564   0.0000000000
C          C       0.42759   0.92850   0.76183   0.0000000000
N          N       0.45149   0.96635   0.69278   0.0000000000
C          C       0.43599   0.99428   0.63659   0.0000000000
O          O       0.50232   0.95197   1.05479   0.0000000000
H          H       0.40917   0.69634   0.65535   0.0000000000
H          H       0.48181   0.82253   0.90536   0.0000000000
H          H       0.39083   0.84945   0.64764   0.0000000000
H          H       0.55796   0.86703   0.82094   0.0000000000
H          H       0.53839   0.84024   1.11063   0.0000000000
H          H       0.58874   0.88326   1.09628   0.0000000000
H          H       0.51111   0.86759   1.42585   0.0000000000
H          H       0.52295   0.92034   1.42273   0.0000000000
H          H       0.56360   0.90845   1.46075   0.0000000000
H          H       0.57122   0.96801   1.11320   0.0000000000
H          H       0.57081   0.94925   0.80679   0.0000000000
H          H       0.60493   0.94972   1.04035   0.0000000000
H          H       0.39452   0.91579   0.76656   0.0000000000
H          H       0.45259   0.02247   0.75108   0.0000000000
H          H       0.40270   0.97988   0.68248   0.0000000000
H          H       0.48482   0.96491   1.08861   0.0000000000
C          C       0.35007   0.64062   0.64658   0.0000000000
C          C       0.30730   0.62391   0.64589   0.0000000000
C          C       0.36713   0.61405   0.67700   0.0000000000
C          C       0.38128   0.59194   0.71450   0.0000000000
C          C       0.39791   0.56572   0.77284   0.0000000000
C          C       0.37269   0.52733   0.88001   0.0000000000
C          C       0.38856   0.50202   0.95848   0.0000000000
C          C       0.43183   0.51812   0.93720   0.0000000000
C          C       0.45671   0.55594   0.81224   0.0000000000
C          C       0.43947   0.57958   0.73525   0.0000000000
C          C       0.36006   0.46003   1.08484   0.0000000000
C          C       0.31389   0.44297   1.02335   0.0000000000
C          C       0.36512   0.46596   1.36537   0.0000000000
C          C       0.37070   0.42667   1.00564   0.0000000000
C          C       0.50091   0.57241   0.76183   0.0000000000
N          N       0.51486   0.54851   0.69278   0.0000000000
C          C       0.55829   0.56401   0.63659   0.0000000000
O          O       0.44965   0.49768   1.05479   0.0000000000
H          H       0.28717   0.59083   0.65535   0.0000000000
H          H       0.34072   0.51819   0.90536   0.0000000000
H          H       0.45862   0.60917   0.64764   0.0000000000
H          H       0.30907   0.44204   0.82094   0.0000000000
H          H       0.30185   0.46161   1.11063   0.0000000000
H          H       0.29452   0.41126   1.09628   0.0000000000
H          H       0.35648   0.48889   1.42585   0.0000000000
H          H       0.39739   0.47705   1.42273   0.0000000000
H          H       0.34485   0.43640   1.46075   0.0000000000
H          H       0.39679   0.42878   1.11320   0.0000000000
H          H       0.37844   0.42919   0.80679   0.0000000000
H          H       0.34479   0.39507   1.04035   0.0000000000
H          H       0.52127   0.60548   0.76656   0.0000000000
H          H       0.56988   0.54741   0.75108   0.0000000000
H          H       0.57718   0.59730   0.68248   0.0000000000
H          H       0.48009   0.51518   1.08861   0.0000000000
C          C       0.29055   0.64993   0.64658   0.0000000000
C          C       0.31661   0.69270   0.64589   0.0000000000
C          C       0.24692   0.63287   0.67700   0.0000000000
C          C       0.21066   0.61872   0.71450   0.0000000000
C          C       0.16781   0.60209   0.77284   0.0000000000
C          C       0.15464   0.62731   0.88001   0.0000000000
C          C       0.11346   0.61144   0.95848   0.0000000000
C          C       0.08629   0.56817   0.93720   0.0000000000
C          C       0.09923   0.54329   0.81224   0.0000000000
C          C       0.14011   0.56053   0.73525   0.0000000000
C          C       0.09997   0.63994   1.08484   0.0000000000
C          C       0.12908   0.68611   1.02335   0.0000000000
C          C       0.10084   0.63488   1.36537   0.0000000000
C          C       0.05597   0.62930   1.00564   0.0000000000
C          C       0.07150   0.49909   0.76183   0.0000000000
N          N       0.03365   0.48514   0.69278   0.0000000000
C          C       0.00572   0.44171   0.63659   0.0000000000
O          O       0.04803   0.55035   1.05479   0.0000000000
H          H       0.30366   0.71283   0.65535   0.0000000000
H          H       0.17747   0.65928   0.90536   0.0000000000
H          H       0.15055   0.54138   0.64764   0.0000000000
H          H       0.13297   0.69093   0.82094   0.0000000000
H          H       0.15976   0.69815   1.11063   0.0000000000
H          H       0.11674   0.70548   1.09628   0.0000000000
H          H       0.13241   0.64352   1.42585   0.0000000000
H          H       0.07966   0.60261   1.42273   0.0000000000
H          H       0.09155   0.65515   1.46075   0.0000000000
H          H       0.03199   0.60321   1.11320   0.0000000000
H          H       0.05075   0.62156   0.80679   0.0000000000
H          H       0.05028   0.65521   1.04035   0.0000000000
H          H       0.08421   0.47873   0.76656   0.0000000000
H          H       0.97753   0.43012   0.75108   0.0000000000
H          H       0.02012   0.42282   0.68248   0.0000000000
H          H       0.03509   0.51991   1.08861   0.0000000000
