data_crystal
 
_cell_length_a    65.10000
_cell_length_b    65.10000
_cell_length_c    3.95000
_cell_angle_alpha 90.00000
_cell_angle_beta  90.00000
_cell_angle_gamma 120.00000
 
_symmetry_space_group_name_Hall 'P 1'
_symmetry_space_group_name_H-M  'P 1'
 
loop_
_symmetry_equiv_pos_as_xyz
 'x,y,z' 
 
loop_
_atom_site_label
_atom_site_type_symbol
_atom_site_fract_x
_atom_site_fract_y
_atom_site_fract_z
_atom_site_charge
H          H       0.19446   1.23890   0.00000   0.0000000000
H          H       0.14653   1.16423   0.00000   0.0000000000
H          H       0.22229   1.19196   0.00000   0.0000000000
H          H       0.15345   1.22565   0.00000   0.0000000000
H          H       0.24942   1.23160   0.00000   0.0000000000
H          H       0.12173   1.22905   0.00000   0.0000000000
H          H       0.08531   1.22969   0.00000   0.0000000000
H          H       0.04609   1.15219   0.00000   0.0000000000
H          H       0.08311   1.15239   0.00000   0.0000000000
H          H       0.28448   1.26207   0.00000   0.0000000000
H          H       0.32219   1.29785   0.00000   0.0000000000
H          H       0.28586   1.33900   0.00000   0.0000000000
H          H       0.24846   1.30269   0.00000   0.0000000000
H          H       0.05493   1.22997   0.00000   0.0000000000
H          H       0.01794   1.22984   0.00000   0.0000000000
H          H      -0.02078   1.15315   0.00000   0.0000000000
H          H       0.01562   1.15247   0.00000   0.0000000000
H          H       0.35350   1.32793   0.00000   0.0000000000
H          H       0.39083   1.36457   0.00000   0.0000000000
H          H       0.35412   1.40453   0.00000   0.0000000000
H          H       0.31673   1.36868   0.00000   0.0000000000
H          H       0.14081   1.13198   0.00000   0.0000000000
H          H       0.13458   1.09210   0.00000   0.0000000000
H          H       0.16745   1.08465   0.00000   0.0000000000
H          H       0.21672   1.16020   0.00000   0.0000000000
H          H       0.19437   1.07945   0.00000   0.0000000000
H          H       0.26906   1.10650   0.00000   0.0000000000
H          H       0.24319   1.15507   0.00000   0.0000000000
H          H       0.20711   1.05168   0.00000   0.0000000000
H          H       0.29706   1.14734   0.00000   0.0000000000
H          H       0.38892   1.43541   0.00000   0.0000000000
H          H       0.44285   1.42785   0.00000   0.0000000000
H          H       0.49156   1.50350   0.00000   0.0000000000
H          H       0.41684   1.47628   0.00000   0.0000000000
H          H       0.47873   1.53120   0.00000   0.0000000000
H          H       0.46930   1.42278   0.00000   0.0000000000
H          H       0.54517   1.45093   0.00000   0.0000000000
H          H       0.55144   1.49084   0.00000   0.0000000000
H          H       0.51857   1.49832   0.00000   0.0000000000
H          H       0.46362   1.39106   0.00000   0.0000000000
H          H       0.49123   1.34395   0.00000   0.0000000000
H          H       0.53936   1.41858   0.00000   0.0000000000
H          H       0.43638   1.35138   0.00000   0.0000000000
H          H       0.53215   1.35700   0.00000   0.0000000000
H          H       0.33197   1.17832   0.00000   0.0000000000
H          H       0.36934   1.21423   0.00000   0.0000000000
H          H       0.33242   1.25483   0.00000   0.0000000000
H          H       0.29514   1.21816   0.00000   0.0000000000
H          H       0.40019   1.24398   0.00000   0.0000000000
H          H       0.43753   1.28037   0.00000   0.0000000000
H          H       0.40129   1.32079   0.00000   0.0000000000
H          H       0.36364   1.28493   0.00000   0.0000000000
H          H       0.20364   1.01641   0.00000   0.0000000000
H          H       0.20307   0.97937   0.00000   0.0000000000
H          H       0.28057   1.01775   0.00000   0.0000000000
H          H       0.28031   1.05454   0.00000   0.0000000000
H          H       0.20288   0.94869   0.00000   0.0000000000
H          H       0.20316   0.91192   0.00000   0.0000000000
H          H       0.27983   0.95007   0.00000   0.0000000000
H          H       0.28038   0.98710   0.00000   0.0000000000
H          H       0.27639   0.91483   0.00000   0.0000000000
H          H       0.21494   0.86018   0.00000   0.0000000000
H          H       0.24299   0.81241   0.00000   0.0000000000
H          H       0.28966   0.88721   0.00000   0.0000000000
H          H       0.28263   0.82508   0.00000   0.0000000000
H          H       0.18271   0.83345   0.00000   0.0000000000
H          H       0.14291   0.79962   0.00000   0.0000000000
H          H       0.13573   0.75940   0.00000   0.0000000000
H          H       0.21135   0.78611   0.00000   0.0000000000
H          H       0.13073   0.72738   0.00000   0.0000000000
H          H       0.15810   0.68002   0.00000   0.0000000000
H          H       0.20642   0.75453   0.00000   0.0000000000
H          H       0.10314   0.68693   0.00000   0.0000000000
H          H       0.19889   0.69297   0.00000   0.0000000000
H          H       0.22981   0.68903   0.00000   0.0000000000
H          H       0.26569   0.68752   0.00000   0.0000000000
H          H       0.30636   0.76504   0.00000   0.0000000000
H          H       0.26971   0.76570   0.00000   0.0000000000
H          H       0.31308   0.82059   0.00000   0.0000000000
H          H       0.34890   0.81875   0.00000   0.0000000000
H          H       0.38993   0.89624   0.00000   0.0000000000
H          H       0.35357   0.89725   0.00000   0.0000000000
H          H       0.29543   0.68638   0.00000   0.0000000000
H          H       0.33180   0.68540   0.00000   0.0000000000
H          H       0.37225   0.76206   0.00000   0.0000000000
H          H       0.33643   0.76387   0.00000   0.0000000000
H          H       0.37894   0.81756   0.00000   0.0000000000
H          H       0.41558   0.81688   0.00000   0.0000000000
H          H       0.45552   0.89356   0.00000   0.0000000000
H          H       0.41966   0.89509   0.00000   0.0000000000
H          H       0.48637   0.88960   0.00000   0.0000000000
H          H       0.40273   0.75760   0.00000   0.0000000000
H          H       0.39569   0.69547   0.00000   0.0000000000
H          H       0.47040   0.72246   0.00000   0.0000000000
H          H       0.44238   0.77026   0.00000   0.0000000000
H          H       0.47889   0.82807   0.00000   0.0000000000
H          H       0.55458   0.85526   0.00000   0.0000000000
H          H       0.52716   0.90259   0.00000   0.0000000000
H          H       0.50265   0.74919   0.00000   0.0000000000
H          H       0.54245   0.78302   0.00000   0.0000000000
H          H       0.54962   0.82325   0.00000   0.0000000000
H          H       0.47400   0.79652   0.00000   0.0000000000
H          H       0.06802   0.65531   0.00000   0.0000000000
H          H       0.03094   0.61893   0.00000   0.0000000000
H          H       0.06911   0.57960   0.00000   0.0000000000
H          H       0.10596   0.61659   0.00000   0.0000000000
H          H       0.00020   0.58850   0.00000   0.0000000000
H          H      -0.03665   0.55152   0.00000   0.0000000000
H          H       0.00129   0.51279   0.00000   0.0000000000
H          H       0.03838   0.54919   0.00000   0.0000000000
H          H      -0.03392   0.48111   0.00000   0.0000000000
H          H      -0.08865   0.48783   0.00000   0.0000000000
H          H      -0.13625   0.41196   0.00000   0.0000000000
H          H      -0.06144   0.44028   0.00000   0.0000000000
H          H      -0.11552   0.49318   0.00000   0.0000000000
H          H      -0.14947   0.49896   0.00000   0.0000000000
H          H      -0.18962   0.46580   0.00000   0.0000000000
H          H      -0.16261   0.41714  -0.00000   0.0000000000
H          H      -0.22155   0.43869   0.00000   0.0000000000
H          H      -0.26870   0.36394   0.00000   0.0000000000
H          H      -0.19414   0.39038   0.00000   0.0000000000
H          H      -0.25561   0.33620   0.00000   0.0000000000
H          H      -0.12353   0.38509   0.00000   0.0000000000
H          H      -0.25945   0.30137   0.00000   0.0000000000
H          H      -0.26086   0.26404   0.00000   0.0000000000
H          H      -0.18335   0.30102   0.00000   0.0000000000
H          H      -0.18278   0.33829   0.00000   0.0000000000
H          H      -0.12802   0.35020   0.00000   0.0000000000
H          H      -0.12987   0.31254   0.00000   0.0000000000
H          H      -0.05238   0.34898   0.00000   0.0000000000
H          H      -0.05135   0.38636   0.00000   0.0000000000
H          H      -0.26195   0.23319   0.00000   0.0000000000
H          H      -0.26287   0.19587   0.00000   0.0000000000
H          H      -0.18621   0.23217   0.00000   0.0000000000
H          H      -0.18445   0.26979   0.00000   0.0000000000
H          H      -0.13106   0.28129   0.00000   0.0000000000
H          H      -0.13173   0.24397   0.00000   0.0000000000
H          H      -0.05505   0.28075   0.00000   0.0000000000
H          H      -0.05354   0.31811   0.00000   0.0000000000
H          H      -0.19065   0.19722   0.00000   0.0000000000
H          H      -0.05893   0.24607   0.00000   0.0000000000
H          H      -0.25276   0.14205   0.00000   0.0000000000
H          H      -0.22560   0.09444   0.00000   0.0000000000
H          H      -0.17796   0.17030   0.00000   0.0000000000
H          H      -0.12031   0.19181   0.00000   0.0000000000
H          H      -0.09270   0.14365   0.00000   0.0000000000
H          H      -0.04573   0.21846   0.00000   0.0000000000
H          H      -0.15171   0.16504   0.00000   0.0000000000
H          H      -0.19877   0.08902   0.00000   0.0000000000
H          H      -0.16480   0.08325   0.00000   0.0000000000
H          H      -0.12464   0.11644   0.00000   0.0000000000
H          H      -0.28029   0.10119   0.00000   0.0000000000
H          H       0.58213   0.89564   0.00000   0.0000000000
H          H       0.61728   0.92714   0.00000   0.0000000000
H          H       0.65445   0.96342   0.00000   0.0000000000
H          H       0.61660   1.00305   0.00000   0.0000000000
H          H       0.57964   0.96616   0.00000   0.0000000000
H          H      -0.05233   1.15667   0.00000   0.0000000000
H          H       0.48209   1.56647   0.00000   0.0000000000
H          H       0.48254   1.60344   0.00000   0.0000000000
H          H       0.40506   1.56488   0.00000   0.0000000000
H          H       0.40544   1.52816   0.00000   0.0000000000
H          H       0.48265   1.63409   0.00000   0.0000000000
H          H       0.48227   1.67082   0.00000   0.0000000000
H          H       0.40560   1.63253   0.00000   0.0000000000
H          H       0.40514   1.59553   0.00000   0.0000000000
H          H       0.40897   1.66781   0.00000   0.0000000000
H          H       0.56395   1.35347   0.00000   0.0000000000
H          H       0.60037   1.35281   0.00000   0.0000000000
H          H       0.63963   1.43031   0.00000   0.0000000000
H          H       0.60263   1.43013   0.00000   0.0000000000
H          H       0.63078   1.35252   0.00000   0.0000000000
H          H       0.66776   1.35266   0.00000   0.0000000000
H          H       0.70649   1.42933   0.00000   0.0000000000
H          H       0.67009   1.43003   0.00000   0.0000000000
H          H       0.73808   1.42579   0.00000   0.0000000000
H          H       0.68529   0.99377   0.00000   0.0000000000
H          H       0.72224   1.03065   0.00000   0.0000000000
H          H       0.68459   1.06968   0.00000   0.0000000000
H          H       0.64742   1.03339   0.00000   0.0000000000
C          C       3.19144  -1.77926   0.00000   0.0000000000
C          C       3.16804  -1.79814   0.00000   0.0000000000
C          C       3.16480  -1.82094   0.00000   0.0000000000
C          C       3.18378  -1.82574   0.00000   0.0000000000
C          C       3.20684  -1.80558   0.00000   0.0000000000
C          C       3.21118  -1.78244   0.00000   0.0000000000
C          C       3.14859  -1.79314   0.00000   0.0000000000
C          C       3.23570  -1.76325   0.00000   0.0000000000
C          C       3.26318  -1.72066   0.00000   0.0000000000
C          C       3.10557  -1.80939   0.00000   0.0000000000
C          C       3.10509  -1.78802   0.00000   0.0000000000
C          C       3.08409  -1.78775   0.00000   0.0000000000
C          C       3.06162  -1.80902   0.00000   0.0000000000
C          C       3.06244  -1.83049   0.00000   0.0000000000
C          C       3.08357  -1.83049   0.00000   0.0000000000
C          C       3.28464  -1.72099   0.00000   0.0000000000
C          C       3.30628  -1.70040   0.00000   0.0000000000
C          C       3.30818  -1.67762   0.00000   0.0000000000
C          C       3.28627  -1.67764   0.00000   0.0000000000
C          C       3.26479  -1.69836   0.00000   0.0000000000
C          C       3.03933  -1.80882   0.00000   0.0000000000
C          C       3.33097  -1.65570   0.00000   0.0000000000
C          C       3.03856  -1.78733   0.00000   0.0000000000
C          C       3.01746  -1.78728   0.00000   0.0000000000
C          C       2.99545  -1.80837   0.00000   0.0000000000
C          C       2.99587  -1.82977   0.00000   0.0000000000
C          C       3.01685  -1.83009   0.00000   0.0000000000
C          C       3.35298  -1.65548   0.00000   0.0000000000
C          C       3.37437  -1.63461   0.00000   0.0000000000
C          C       3.37573  -1.61239   0.00000   0.0000000000
C          C       3.35418  -1.61231   0.00000   0.0000000000
C          C       3.33267  -1.63301   0.00000   0.0000000000
C          C       3.17986  -1.84987   0.00000   0.0000000000
C          C       3.15656  -1.87000   0.00000   0.0000000000
C          C       3.15281  -1.89279   0.00000   0.0000000000
C          C       3.17168  -1.89682   0.00000   0.0000000000
C          C       3.19560  -1.87779   0.00000   0.0000000000
C          C       3.19862  -1.85479   0.00000   0.0000000000
C          C       3.21558  -1.88206   0.00000   0.0000000000
C          C       3.21239  -1.90528   0.00000   0.0000000000
C          C       3.23102  -1.90994   0.00000   0.0000000000
C          C       3.25401  -1.89033   0.00000   0.0000000000
C          C       3.25877  -1.86687   0.00000   0.0000000000
C          C       3.23945  -1.86330   0.00000   0.0000000000
C          C       3.22591  -1.93442   0.00000   0.0000000000
C          C       3.28326  -1.84762   0.00000   0.0000000000
C          C       3.31031  -1.80481   0.00000   0.0000000000
C          C       3.24209  -1.96127   0.00000   0.0000000000
C          C       3.40274  -1.56960   0.00000   0.0000000000
C          C       3.42721  -1.55028   0.00000   0.0000000000
C          C       3.44657  -1.55379   0.00000   0.0000000000
C          C       3.47041  -1.53499   0.00000   0.0000000000
C          C       3.47355  -1.51180   0.00000   0.0000000000
C          C       3.45489  -1.50720   0.00000   0.0000000000
C          C       3.43192  -1.52684   0.00000   0.0000000000
C          C       3.45993  -1.48273   0.00000   0.0000000000
C          C       3.49042  -1.53924   0.00000   0.0000000000
C          C       3.48739  -1.56223   0.00000   0.0000000000
C          C       3.50613  -1.56718   0.00000   0.0000000000
C          C       3.52943  -1.54706   0.00000   0.0000000000
C          C       3.53320  -1.52426   0.00000   0.0000000000
C          C       3.51434  -1.52021   0.00000   0.0000000000
C          C       3.50214  -1.59133   0.00000   0.0000000000
C          C       3.47905  -1.61144   0.00000   0.0000000000
C          C       3.47463  -1.63461   0.00000   0.0000000000
C          C       3.49432  -1.63786   0.00000   0.0000000000
C          C       3.51775  -1.61904   0.00000   0.0000000000
C          C       3.52108  -1.59621   0.00000   0.0000000000
C          C       3.45010  -1.65377   0.00000   0.0000000000
C          C       3.53712  -1.62418   0.00000   0.0000000000
C          C       3.33189  -1.80486   0.00000   0.0000000000
C          C       3.35337  -1.78413   0.00000   0.0000000000
C          C       3.35502  -1.76146   0.00000   0.0000000000
C          C       3.33298  -1.76173   0.00000   0.0000000000
C          C       3.31162  -1.78262   0.00000   0.0000000000
C          C       3.37777  -1.73951   0.00000   0.0000000000
C          C       3.39971  -1.73941   0.00000   0.0000000000
C          C       3.42116  -1.71865   0.00000   0.0000000000
C          C       3.42268  -1.69638   0.00000   0.0000000000
C          C       3.40119  -1.69613   0.00000   0.0000000000
C          C       3.37959  -1.71676   0.00000   0.0000000000
C          C       3.22073  -1.98312   0.00000   0.0000000000
C          C       3.22049  -2.00439   0.00000   0.0000000000
C          C       3.24179  -2.00554   0.00000   0.0000000000
C          C       3.26324  -1.98324   0.00000   0.0000000000
C          C       3.26321  -1.96212   0.00000   0.0000000000
C          C       3.24166  -2.02800   0.00000   0.0000000000
C          C       3.22022  -2.05031   0.00000   0.0000000000
C          C       3.22026  -2.07141   0.00000   0.0000000000
C          C       3.24138  -2.07227   0.00000   0.0000000000
C          C       3.26273  -2.05040   0.00000   0.0000000000
C          C       3.26297  -2.02914   0.00000   0.0000000000
C          C       3.25759  -2.09909   0.00000   0.0000000000
C          C       3.25259  -2.12355   0.00000   0.0000000000
C          C       3.22982  -2.14317   0.00000   0.0000000000
C          C       3.22513  -2.16694   0.00000   0.0000000000
C          C       3.24535  -2.16972   0.00000   0.0000000000
C          C       3.26845  -2.15085   0.00000   0.0000000000
C          C       3.27153  -2.12798   0.00000   0.0000000000
C          C       3.28771  -2.15607   0.00000   0.0000000000
C          C       3.20106  -2.18724   0.00000   0.0000000000
C          C       3.18084  -2.18424   0.00000   0.0000000000
C          C       3.15810  -2.20338   0.00000   0.0000000000
C          C       3.15423  -2.22622   0.00000   0.0000000000
C          C       3.17336  -2.23096   0.00000   0.0000000000
C          C       3.19630  -2.21089   0.00000   0.0000000000
C          C       3.16924  -2.25517   0.00000   0.0000000000
C          C       3.14607  -2.27526   0.00000   0.0000000000
C          C       3.14152  -2.29851   0.00000   0.0000000000
C          C       3.16119  -2.30179   0.00000   0.0000000000
C          C       3.18462  -2.28302   0.00000   0.0000000000
C          C       3.18808  -2.26016   0.00000   0.0000000000
C          C       3.11707  -2.31793   0.00000   0.0000000000
C          C       3.20391  -2.28819   0.00000   0.0000000000
C          C       3.33029  -2.14084   0.00000   0.0000000000
C          C       3.24670  -2.27244   0.00000   0.0000000000
C          C       3.24663  -2.29407   0.00000   0.0000000000
C          C       3.26735  -2.29485   0.00000   0.0000000000
C          C       3.29003  -2.27385   0.00000   0.0000000000
C          C       3.28979  -2.25207   0.00000   0.0000000000
C          C       3.26891  -2.25157   0.00000   0.0000000000
C          C       3.33000  -2.16260   0.00000   0.0000000000
C          C       3.35062  -2.16360   0.00000   0.0000000000
C          C       3.37337  -2.14269   0.00000   0.0000000000
C          C       3.37331  -2.12083   0.00000   0.0000000000
C          C       3.35257  -2.12011   0.00000   0.0000000000
C          C       3.31196  -2.27468   0.00000   0.0000000000
C          C       3.39530  -2.14354   0.00000   0.0000000000
C          C       3.31204  -2.29654   0.00000   0.0000000000
C          C       3.33279  -2.29724   0.00000   0.0000000000
C          C       3.35507  -2.27651   0.00000   0.0000000000
C          C       3.35534  -2.25475   0.00000   0.0000000000
C          C       3.33471  -2.25377   0.00000   0.0000000000
C          C       3.39552  -2.16532   0.00000   0.0000000000
C          C       3.41639  -2.16584   0.00000   0.0000000000
C          C       3.43860  -2.14498   0.00000   0.0000000000
C          C       3.43869  -2.12334   0.00000   0.0000000000
C          C       3.41798  -2.12254   0.00000   0.0000000000
C          C       3.48137  -2.12923   0.00000   0.0000000000
C          C       3.50067  -2.13438   0.00000   0.0000000000
C          C       3.39765  -2.26125   0.00000   0.0000000000
C          C       3.41691  -2.26648   0.00000   0.0000000000
C          C       3.41383  -2.28936   0.00000   0.0000000000
C          C       3.43276  -2.29381   0.00000   0.0000000000
C          C       3.45552  -2.27418   0.00000   0.0000000000
C          C       3.46023  -2.25042   0.00000   0.0000000000
C          C       3.44001  -2.24762   0.00000   0.0000000000
C          C       3.49722  -2.15724   0.00000   0.0000000000
C          C       3.51608  -2.16221   0.00000   0.0000000000
C          C       3.53923  -2.14210   0.00000   0.0000000000
C          C       3.54377  -2.11886   0.00000   0.0000000000
C          C       3.52409  -2.11559   0.00000   0.0000000000
C          C       3.48429  -2.23012   0.00000   0.0000000000
C          C       3.51198  -2.18641   0.00000   0.0000000000
C          C       3.50452  -2.23312   0.00000   0.0000000000
C          C       3.52725  -2.21398   0.00000   0.0000000000
C          C       3.53112  -2.19114   0.00000   0.0000000000
C          C       3.48905  -2.20648   0.00000   0.0000000000
C          C       3.09025  -2.36091   0.00000   0.0000000000
C          C       3.06844  -2.36134   0.00000   0.0000000000
C          C       3.04714  -2.38232   0.00000   0.0000000000
C          C       3.04590  -2.40481   0.00000   0.0000000000
C          C       3.06817  -2.40403   0.00000   0.0000000000
C          C       3.08933  -2.38293   0.00000   0.0000000000
C          C       3.02341  -2.42709   0.00000   0.0000000000
C          C       3.00114  -2.42787   0.00000   0.0000000000
C          C       2.97999  -2.44897   0.00000   0.0000000000
C          C       2.97904  -2.47100   0.00000   0.0000000000
C          C       3.00087  -2.47056   0.00000   0.0000000000
C          C       3.02217  -2.44958   0.00000   0.0000000000
C          C       2.95216  -2.51400   0.00000   0.0000000000
C          C       2.92772  -2.53347   0.00000   0.0000000000
C          C       2.90805  -2.53039   0.00000   0.0000000000
C          C       2.88431  -2.54951   0.00000   0.0000000000
C          C       2.88159  -2.57249   0.00000   0.0000000000
C          C       2.90050  -2.57665   0.00000   0.0000000000
C          C       2.92335  -2.55682   0.00000   0.0000000000
C          C       2.86393  -2.54587   0.00000   0.0000000000
C          C       2.86683  -2.52269   0.00000   0.0000000000
C          C       2.84762  -2.51920   0.00000   0.0000000000
C          C       2.82482  -2.53824   0.00000   0.0000000000
C          C       2.82019  -2.56208   0.00000   0.0000000000
C          C       2.84033  -2.56482   0.00000   0.0000000000
C          C       2.79603  -2.58224   0.00000   0.0000000000
C          C       2.77588  -2.57926   0.00000   0.0000000000
C          C       2.75267  -2.59801   0.00000   0.0000000000
C          C       2.74947  -2.62093   0.00000   0.0000000000
C          C       2.76830  -2.62550   0.00000   0.0000000000
C          C       2.79113  -2.60604   0.00000   0.0000000000
C          C       2.76321  -2.64995   0.00000   0.0000000000
C          C       2.89532  -2.60112   0.00000   0.0000000000
C          C       2.77907  -2.67691   0.00000   0.0000000000
C          C       2.91056  -2.62844   0.00000   0.0000000000
C          C       2.75747  -2.69851   0.00000   0.0000000000
C          C       2.75675  -2.71998   0.00000   0.0000000000
C          C       2.77777  -2.72161   0.00000   0.0000000000
C          C       2.79951  -2.69956   0.00000   0.0000000000
C          C       2.79996  -2.67821   0.00000   0.0000000000
C          C       2.88879  -2.64991   0.00000   0.0000000000
C          C       2.88778  -2.67153   0.00000   0.0000000000
C          C       2.90868  -2.67339   0.00000   0.0000000000
C          C       2.93055  -2.65147   0.00000   0.0000000000
C          C       2.93128  -2.63000   0.00000   0.0000000000
C          C       2.77699  -2.74436   0.00000   0.0000000000
C          C       2.90783  -2.69616   0.00000   0.0000000000
C          C       2.75515  -2.76631   0.00000   0.0000000000
C          C       2.75448  -2.78775   0.00000   0.0000000000
C          C       2.77523  -2.78926   0.00000   0.0000000000
C          C       2.79697  -2.76775   0.00000   0.0000000000
C          C       2.79792  -2.74616   0.00000   0.0000000000
C          C       2.88605  -2.71818   0.00000   0.0000000000
C          C       2.88554  -2.73956   0.00000   0.0000000000
C          C       2.90641  -2.74090   0.00000   0.0000000000
C          C       2.92804  -2.71934   0.00000   0.0000000000
C          C       2.92883  -2.69784   0.00000   0.0000000000
C          C       2.79051  -2.81657   0.00000   0.0000000000
C          C       2.78530  -2.84105   0.00000   0.0000000000
C          C       2.92227  -2.76782   0.00000   0.0000000000
C          C       2.91725  -2.79224   0.00000   0.0000000000
C          C       2.76244  -2.86088   0.00000   0.0000000000
C          C       2.75806  -2.88424   0.00000   0.0000000000
C          C       2.77770  -2.88734   0.00000   0.0000000000
C          C       2.80144  -2.86824   0.00000   0.0000000000
C          C       2.80419  -2.84524   0.00000   0.0000000000
C          C       2.89445  -2.81173   0.00000   0.0000000000
C          C       2.88964  -2.83551   0.00000   0.0000000000
C          C       2.90983  -2.83841   0.00000   0.0000000000
C          C       2.93301  -2.81961   0.00000   0.0000000000
C          C       2.93614  -2.79672   0.00000   0.0000000000
C          C       2.82178  -2.87193   0.00000   0.0000000000
C          C       2.86551  -2.85571   0.00000   0.0000000000
C          C       2.84537  -2.85299   0.00000   0.0000000000
C          C       2.81889  -2.89512   0.00000   0.0000000000
C          C       2.83811  -2.89860   0.00000   0.0000000000
C          C       2.86091  -2.87954   0.00000   0.0000000000
C          C       2.73361  -2.90371   0.00000   0.0000000000
C          C       3.56823  -2.09945   0.00000   0.0000000000
C          C       3.59517  -2.05649   0.00000   0.0000000000
C          C       3.61694  -2.05617   0.00000   0.0000000000
C          C       3.63830  -2.03525   0.00000   0.0000000000
C          C       3.63966  -2.01270   0.00000   0.0000000000
C          C       3.61744  -2.01337   0.00000   0.0000000000
C          C       3.59623  -2.03442   0.00000   0.0000000000
C          C       2.95249  -1.82455   0.00000   0.0000000000
C          C       3.44366  -1.45595   0.00000   0.0000000000
C          C       3.46497  -1.43406   0.00000   0.0000000000
C          C       3.46515  -1.41282   0.00000   0.0000000000
C          C       3.44382  -1.41172   0.00000   0.0000000000
C          C       3.42241  -1.43407   0.00000   0.0000000000
C          C       3.42251  -1.45515   0.00000   0.0000000000
C          C       3.44387  -1.38930   0.00000   0.0000000000
C          C       3.46529  -1.36696   0.00000   0.0000000000
C          C       3.46519  -1.34587   0.00000   0.0000000000
C          C       3.44404  -1.34507   0.00000   0.0000000000
C          C       3.42272  -1.36697   0.00000   0.0000000000
C          C       3.42254  -1.38820   0.00000   0.0000000000
C          C       3.42776  -1.31827   0.00000   0.0000000000
C          C       3.58015  -1.60808   0.00000   0.0000000000
C          C       3.58060  -1.62946   0.00000   0.0000000000
C          C       3.60160  -1.62975   0.00000   0.0000000000
C          C       3.62407  -1.60848   0.00000   0.0000000000
C          C       3.62328  -1.58700   0.00000   0.0000000000
C          C       3.60215  -1.58699   0.00000   0.0000000000
C          C       3.64637  -1.60868   0.00000   0.0000000000
C          C       3.64715  -1.63017   0.00000   0.0000000000
C          C       3.66825  -1.63022   0.00000   0.0000000000
C          C       3.69026  -1.60914   0.00000   0.0000000000
C          C       3.68983  -1.58774   0.00000   0.0000000000
C          C       3.66885  -1.58742   0.00000   0.0000000000
C          C       3.73323  -1.59300   0.00000   0.0000000000
C          C       3.66222  -1.99048   0.00000   0.0000000000
C          C       3.68444  -1.98981   0.00000   0.0000000000
C          C       3.70565  -1.96876   0.00000   0.0000000000
C          C       3.70670  -1.94668   0.00000   0.0000000000
C          C       3.68492  -1.94702   0.00000   0.0000000000
C          C       3.66357  -1.96794   0.00000   0.0000000000
N          N       3.24060  -1.74132   0.00000   0.0000000000
N          N       3.12673  -1.81045   0.00000   0.0000000000
N          N       3.28796  -1.82572   0.00000   0.0000000000
N          N       3.24317  -1.93903   0.00000   0.0000000000
N          N       3.39809  -1.59148   0.00000   0.0000000000
N          N       3.44522  -1.67570   0.00000   0.0000000000
N          N       3.24031  -2.09450   0.00000   0.0000000000
N          N       3.30960  -2.13898   0.00000   0.0000000000
N          N       3.22580  -2.27098   0.00000   0.0000000000
N          N       3.37576  -2.27836   0.00000   0.0000000000
N          N       3.45949  -2.14645   0.00000   0.0000000000
N          N       3.11251  -2.33979   0.00000   0.0000000000
N          N       2.95677  -2.49213   0.00000   0.0000000000
N          N       2.78047  -2.65457   0.00000   0.0000000000
N          N       2.91243  -2.60589   0.00000   0.0000000000
N          N       2.77340  -2.81179   0.00000   0.0000000000
N          N       2.90498  -2.76326   0.00000   0.0000000000
N          N       2.72900  -2.92559   0.00000   0.0000000000
N          N       3.57286  -2.07756   0.00000   0.0000000000
N          N       2.97433  -1.80723   0.00000   0.0000000000
N          N       3.44264  -1.47816   0.00000   0.0000000000
N          N       3.44505  -1.32286   0.00000   0.0000000000
N          N       3.55901  -1.60696   0.00000   0.0000000000
N          N       3.71138  -1.61029   0.00000   0.0000000000
