data_crystal
 
_cell_length_a    29.14290
_cell_length_b    29.14290
_cell_length_c    7.01800
_cell_angle_alpha 90.00000
_cell_angle_beta  90.00000
_cell_angle_gamma 120.00000
 
_symmetry_space_group_name_Hall 'P 1'
_symmetry_space_group_name_H-M  'P 1'
 
loop_
_symmetry_equiv_pos_as_xyz
 'x,y,z' 
 
loop_
_atom_site_label
_atom_site_type_symbol
_atom_site_fract_x
_atom_site_fract_y
_atom_site_fract_z
_atom_site_charge
N          N       0.37014   0.56060   0.00000   0.0000000000
N          N       0.57342   0.38663   0.00000   0.0000000000
N          N       0.43941   0.80955   0.00000   0.0000000000
N          N       0.61337   0.18679   0.00000   0.0000000000
N          N       0.19045   0.62986   0.00000   0.0000000000
N          N       0.81321   0.42658   0.00000   0.0000000000
C          C       0.30677   0.61115   0.00000   0.0000000000
C          C       0.67053   0.38324   0.00000   0.0000000000
C          C       0.38885   0.69562   0.00000   0.0000000000
C          C       0.61676   0.28729   0.00000   0.0000000000
C          C       0.30438   0.69323   0.00000   0.0000000000
C          C       0.71271   0.32947   0.00000   0.0000000000
C          C       0.39303   0.61401   0.00000   0.0000000000
C          C       0.57274   0.33989   0.00000   0.0000000000
C          C       0.38599   0.77902   0.00000   0.0000000000
C          C       0.66012   0.23285   0.00000   0.0000000000
C          C       0.22098   0.60697   0.00000   0.0000000000
C          C       0.76715   0.42726   0.00000   0.0000000000
C          C       0.39148   0.52861   0.00000   0.0000000000
C          C       0.53360   0.39789   0.00000   0.0000000000
C          C       0.47140   0.86287   0.00000   0.0000000000
C          C       0.60211   0.13571   0.00000   0.0000000000
C          C       0.13713   0.60853   0.00000   0.0000000000
C          C       0.86429   0.46640   0.00000   0.0000000000
C          C       0.44667   0.54685   0.00000   0.0000000000
C          C       0.47876   0.35932   0.00000   0.0000000000
C          C       0.45315   0.89982   0.00000   0.0000000000
C          C       0.64069   0.11944   0.00000   0.0000000000
C          C       0.10018   0.55334   0.00000   0.0000000000
C          C       0.88056   0.52125   0.00000   0.0000000000
C          C       0.46380   0.50954   0.00000   0.0000000000
C          C       0.43974   0.37446   0.00000   0.0000000000
C          C       0.49046   0.95426   0.00000   0.0000000000
C          C       0.62555   0.06528   0.00000   0.0000000000
C          C       0.04574   0.53620   0.00000   0.0000000000
C          C       0.93472   0.56026   0.00000   0.0000000000
C          C       0.42748   0.45519   0.00000   0.0000000000
C          C       0.45620   0.42873   0.00000   0.0000000000
C          C       0.54481   0.97230   0.00000   0.0000000000
C          C       0.57127   0.02747   0.00000   0.0000000000
C          C       0.02771   0.57252   0.00000   0.0000000000
C          C       0.97253   0.54380   0.00000   0.0000000000
C          C       0.37269   0.43622   0.00000   0.0000000000
C          C       0.50998   0.46698   0.00000   0.0000000000
C          C       0.56378   0.93647   0.00000   0.0000000000
C          C       0.53302   0.04300   0.00000   0.0000000000
C          C       0.06353   0.62731   0.00000   0.0000000000
C          C       0.95701   0.49002   0.00000   0.0000000000
C          C       0.35510   0.47335   0.00000   0.0000000000
C          C       0.54914   0.45231   0.00000   0.0000000000
C          C       0.52665   0.88175   0.00000   0.0000000000
C          C       0.54769   0.09683   0.00000   0.0000000000
C          C       0.11825   0.64490   0.00000   0.0000000000
C          C       0.90317   0.45086   0.00000   0.0000000000
C          C       0.36284   0.63964   0.00000   0.0000000000
C          C       0.61977   0.33724   0.00000   0.0000000000
C          C       0.36036   0.72319   0.00000   0.0000000000
C          C       0.66276   0.28253   0.00000   0.0000000000
C          C       0.27681   0.63717   0.00000   0.0000000000
C          C       0.71747   0.38023   0.00000   0.0000000000
H          H       0.43344   0.63657   0.00000   0.0000000000
H          H       0.53712   0.30538   0.00000   0.0000000000
H          H       0.36343   0.79687   0.00000   0.0000000000
H          H       0.69462   0.23174   0.00000   0.0000000000
H          H       0.20313   0.56656   0.00000   0.0000000000
H          H       0.76826   0.46288   0.00000   0.0000000000
H          H       0.67349   0.41977   0.00000   0.0000000000
H          H       0.28724   0.57058   0.00000   0.0000000000
C          C       0.48292   0.99786   0.00000   0.0000000000
H          H       0.34610   0.39648   0.00000   0.0000000000
H          H       0.31518   0.45963   0.00000   0.0000000000
H          H       0.46649   0.31982   0.00000   0.0000000000
H          H       0.40040   0.34648   0.00000   0.0000000000
H          H       0.58833   0.48096   0.00000   0.0000000000
H          H       0.45437   0.99516  -0.10830   0.0000000000
H          H       0.58023   0.25372   0.00000   0.0000000000
H          H       0.42942   0.71667   0.00000   0.0000000000
C          C       0.00214   0.48507   0.00000   0.0000000000
H          H       0.41373   0.88789   0.00000   0.0000000000
H          H       0.60352   0.94962   0.00000   0.0000000000
H          H       0.54037   0.85555   0.00000   0.0000000000
H          H       0.68018   0.14667   0.00000   0.0000000000
H          H       0.65352   0.05392   0.00000   0.0000000000
H          H       0.51904   0.10737   0.00000   0.0000000000
H          H       0.74629   0.32651   0.00000   0.0000000000
H          H       0.28334   0.71276   0.00000   0.0000000000
C          C       0.51494   0.51708   0.00000   0.0000000000
H          H       0.11212   0.52585   0.00000   0.0000000000
H          H       0.05038   0.65390   0.00000   0.0000000000
H          H       0.14445   0.68482   0.00000   0.0000000000
H          H       0.85333   0.53351   0.00000   0.0000000000
H          H       0.94608   0.59960   0.00000   0.0000000000
H          H       0.89263   0.41167   0.00000   0.0000000000
H          H       0.53584   0.53856  -0.12448   0.0000000000
H          H       0.53666   0.53940   0.12198   0.0000000000
H          H       0.47380   0.58691   0.00000   0.0000000000
H          H      -0.00218   0.46075  -0.11974   0.0000000000
H          H      -0.00164   0.46205   0.11784   0.0000000000
H          H       0.46207   1.00303   0.12748   0.0000000000
N          N       0.37014   0.56060   0.50000   0.0000000000
N          N       0.57342   0.38663   0.50000   0.0000000000
N          N       0.43941   0.80955   0.50000   0.0000000000
N          N       0.61337   0.18679   0.50000   0.0000000000
N          N       0.19045   0.62986   0.50000   0.0000000000
N          N       0.81321   0.42658   0.50000   0.0000000000
C          C       0.30677   0.61115   0.50000   0.0000000000
C          C       0.67053   0.38324   0.50000   0.0000000000
C          C       0.38885   0.69562   0.50000   0.0000000000
C          C       0.61676   0.28729   0.50000   0.0000000000
C          C       0.30438   0.69323   0.50000   0.0000000000
C          C       0.71271   0.32947   0.50000   0.0000000000
C          C       0.39303   0.61401   0.50000   0.0000000000
C          C       0.57274   0.33989   0.50000   0.0000000000
C          C       0.38599   0.77902   0.50000   0.0000000000
C          C       0.66012   0.23285   0.50000   0.0000000000
C          C       0.22098   0.60697   0.50000   0.0000000000
C          C       0.76715   0.42726   0.50000   0.0000000000
C          C       0.39148   0.52861   0.50000   0.0000000000
C          C       0.53360   0.39789   0.50000   0.0000000000
C          C       0.47140   0.86287   0.50000   0.0000000000
C          C       0.60211   0.13571   0.50000   0.0000000000
C          C       0.13713   0.60853   0.50000   0.0000000000
C          C       0.86429   0.46640   0.50000   0.0000000000
C          C       0.44667   0.54685   0.50000   0.0000000000
C          C       0.47876   0.35932   0.50000   0.0000000000
C          C       0.45315   0.89982   0.50000   0.0000000000
C          C       0.64069   0.11944   0.50000   0.0000000000
C          C       0.10018   0.55334   0.50000   0.0000000000
C          C       0.88056   0.52125   0.50000   0.0000000000
C          C       0.46380   0.50954   0.50000   0.0000000000
C          C       0.43974   0.37446   0.50000   0.0000000000
C          C       0.49046   0.95426   0.50000   0.0000000000
C          C       0.62555   0.06528   0.50000   0.0000000000
C          C       0.04574   0.53620   0.50000   0.0000000000
C          C       0.93472   0.56026   0.50000   0.0000000000
C          C       0.42748   0.45519   0.50000   0.0000000000
C          C       0.45620   0.42873   0.50000   0.0000000000
C          C       0.54481   0.97230   0.50000   0.0000000000
C          C       0.57127   0.02747   0.50000   0.0000000000
C          C       0.02771   0.57252   0.50000   0.0000000000
C          C       0.97253   0.54380   0.50000   0.0000000000
C          C       0.37269   0.43622   0.50000   0.0000000000
C          C       0.50998   0.46698   0.50000   0.0000000000
C          C       0.56378   0.93647   0.50000   0.0000000000
C          C       0.53302   0.04300   0.50000   0.0000000000
C          C       0.06353   0.62731   0.50000   0.0000000000
C          C       0.95701   0.49002   0.50000   0.0000000000
C          C       0.35510   0.47335   0.50000   0.0000000000
C          C       0.54914   0.45231   0.50000   0.0000000000
C          C       0.52665   0.88175   0.50000   0.0000000000
C          C       0.54769   0.09683   0.50000   0.0000000000
C          C       0.11825   0.64490   0.50000   0.0000000000
C          C       0.90317   0.45086   0.50000   0.0000000000
C          C       0.36284   0.63964   0.50000   0.0000000000
C          C       0.61977   0.33724   0.50000   0.0000000000
C          C       0.36036   0.72319   0.50000   0.0000000000
C          C       0.66276   0.28253   0.50000   0.0000000000
C          C       0.27681   0.63717   0.50000   0.0000000000
C          C       0.71747   0.38023   0.50000   0.0000000000
H          H       0.43344   0.63657   0.50000   0.0000000000
H          H       0.53712   0.30538   0.50000   0.0000000000
H          H       0.36343   0.79687   0.50000   0.0000000000
H          H       0.69462   0.23174   0.50000   0.0000000000
H          H       0.20313   0.56656   0.50000   0.0000000000
H          H       0.76826   0.46288   0.50000   0.0000000000
H          H       0.67349   0.41977   0.50000   0.0000000000
H          H       0.28724   0.57058   0.50000   0.0000000000
C          C       0.48292   0.99786   0.50000   0.0000000000
H          H       0.34610   0.39648   0.50000   0.0000000000
H          H       0.31518   0.45963   0.50000   0.0000000000
H          H       0.46649   0.31982   0.50000   0.0000000000
H          H       0.40040   0.34648   0.50000   0.0000000000
H          H       0.58833   0.48096   0.50000   0.0000000000
H          H       0.45437   0.99516   0.39169   0.0000000000
H          H       0.58023   0.25372   0.50000   0.0000000000
H          H       0.42942   0.71667   0.50000   0.0000000000
C          C       0.00214   0.48507   0.50000   0.0000000000
H          H       0.41373   0.88789   0.50000   0.0000000000
H          H       0.60352   0.94962   0.50000   0.0000000000
H          H       0.54037   0.85555   0.50000   0.0000000000
H          H       0.68018   0.14667   0.50000   0.0000000000
H          H       0.65352   0.05392   0.50000   0.0000000000
H          H       0.51904   0.10737   0.50000   0.0000000000
H          H       0.74629   0.32651   0.50000   0.0000000000
H          H       0.28334   0.71276   0.50000   0.0000000000
C          C       0.51494   0.51708   0.50000   0.0000000000
H          H       0.11212   0.52585   0.50000   0.0000000000
H          H       0.05038   0.65390   0.50000   0.0000000000
H          H       0.14445   0.68482   0.50000   0.0000000000
H          H       0.85333   0.53351   0.50000   0.0000000000
H          H       0.94608   0.59960   0.50000   0.0000000000
H          H       0.89263   0.41167   0.50000   0.0000000000
H          H       0.53584   0.53856   0.37552   0.0000000000
H          H       0.53666   0.53940   0.62197   0.0000000000
H          H       0.47380   0.58691   0.50000   0.0000000000
H          H      -0.00218   0.46075   0.38026   0.0000000000
H          H      -0.00164   0.46205   0.61784   0.0000000000
H          H       0.46207   1.00303   0.62748   0.0000000000
