data_crystal

_cell_length_a    37.50120
_cell_length_b    37.49980
_cell_length_c    7.08000
_cell_angle_alpha 90.00560
_cell_angle_beta  90.05530
_cell_angle_gamma 120.01000

_space_group_name_Hall 'P 1'
_space_group_name_H-M_alt  'P 1'

loop_
_symmetry_equiv_pos_as_xyz
'x,y,z' 

loop_
_atom_site_label
_atom_site_type_symbol
_atom_site_fract_x
_atom_site_fract_y
_atom_site_fract_z
C          C       0.47557   0.51299   0.12578 
C          C       0.46239   0.47032   0.11522 
C          C       0.49065   0.45681   0.14794 
C          C       0.53167   0.48412   0.20096 
C          C       0.54463   0.52665   0.21521 
C          C       0.51657   0.54030   0.17976 
O          O       0.58416   0.55645   0.27547 
C          C       0.61812   0.56170   0.16345 
O          O       0.42256   0.44021   0.05912 
C          C       0.38879   0.43622   0.16918 
C          C       0.55996   0.46782   0.24255 
C          C       0.44765   0.52942   0.07765 
N          N       0.45967   0.56844   0.09246 
N          N       0.55073   0.43092   0.19017 
C          C       0.43394   0.58634   0.06010 
C          C       0.57542   0.41137   0.20914 
C          C       0.55854   0.37073   0.14627 
C          C       0.58177   0.35092   0.14582 
C          C       0.62274   0.37089   0.21304 
C          C       0.63927   0.41150   0.28223 
C          C       0.61618   0.43169   0.27821 
C          C       0.45197   0.62696  -0.00439 
C          C       0.42819   0.64578  -0.03310 
C          C       0.38572   0.62496   0.00914 
C          C       0.36797   0.58432   0.07909 
C          C       0.39163   0.56514   0.10255 
C          C       0.64839   0.35025   0.19779 
C          C       0.36027   0.64527  -0.02438 
C          C       0.69103   0.37323   0.17327 
C          C       0.31405   0.68355  -0.11244 
C          C       0.47746   0.95690  -0.08273 
C          C       0.51775   0.98836  -0.14072 
C          C       0.52804   0.02989  -0.13148 
C          C       0.50072   0.04249  -0.06760 
C          C       0.46078   0.01269  -0.01647 
C          C       0.44903   0.96887  -0.02550 
O          O       0.43532   0.02364   0.08163 
C          C       0.40622   0.02720  -0.03410 
O          O       0.54878   0.98269  -0.22467 
C          C       0.55162   0.94670  -0.19620 
C          C       0.51527   0.08698  -0.04843 
C          C       0.46393   0.91230  -0.07097 
N          N       0.42561   0.88435  -0.09403 
N          N       0.55099   0.11035   0.02654 
C          C       0.40977   0.84063  -0.08167 
C          C       0.57300   0.15415   0.05475 
C          C       0.61165   0.17091   0.13712 
C          C       0.63635   0.21319   0.15907 
C          C       0.62403   0.24090   0.10153 
C          C       0.58398   0.22373   0.02241 
C          C       0.55873   0.18081  -0.00185 
C          C       0.36879   0.81516  -0.02767 
C          C       0.35191   0.77248  -0.01743 
C          C       0.37526   0.75396  -0.06803 
C          C       0.41650   0.77963  -0.12310 
C          C       0.43367   0.82254  -0.12882 
C          C       0.65088   0.28679   0.13906 
C          C       0.35597   0.70810  -0.06824 
C          C       0.62962   0.30737   0.19136 
C          C       0.31745   0.62160  -0.05973 
C          C       0.04561   0.53003  -0.15954 
C          C       0.01791   0.54382  -0.20080 
C          C       0.97333   0.51691  -0.16131 
C          C       0.95790   0.47655  -0.09557 
C          C       0.98548   0.46124  -0.07572 
C          C       0.03011   0.48942  -0.09946 
O          O       0.97376   0.42217  -0.00277 
C          C       0.94597   0.38734  -0.11342 
O          O       0.03127   0.58013  -0.30336 
C          C       0.03295   0.61319  -0.19877 
C          C       0.91366   0.45066  -0.04574 
C          C       0.09067   0.55880  -0.16838 
N          N       0.11651   0.54517  -0.15908 
N          N       0.88877   0.46523  -0.02616 
C          C       0.16070   0.57008  -0.14995 
C          C       0.84599   0.43985   0.02733 
C          C       0.81661   0.45058  -0.02756 
C          C       0.77432   0.42321   0.00314 
C          C       0.76040   0.38468   0.09299 
C          C       0.79063   0.37658   0.15951 
C          C       0.83235   0.40294   0.12628 
C          C       0.18465   0.55255  -0.20161 
C          C       0.22774   0.57527  -0.18898 
C          C       0.24787   0.61593  -0.11955 
C          C       0.22346   0.63301  -0.06348 
C          C       0.18052   0.61054  -0.07956 
C          C       0.71511   0.35498   0.13087 
C          C       0.29381   0.64048  -0.09897 
C          C       0.69532   0.31043   0.11482 
C          C       0.37870   0.68865  -0.02275 
C          C       0.71776   2.29114   0.01054 
C          C       0.73867   1.26641   0.09523 
N          N       0.71912   1.22287   0.03782 
C          C       0.75129   1.21264  -0.02139 
N          N       0.79127   1.25090   0.01912 
C          C       0.78243   1.28135   0.05265 
C          C       0.74119   1.16687   0.06362 
C          C       0.69645   1.14859   0.15472 
C          C       0.78285   1.17592   0.15524 
C          C       0.73159   1.12440  -0.03026 
C          C       0.83363   1.26353  -0.04510 
O          O       0.80881   1.31759   0.04659 
H          H       0.47999   0.42422   0.13472 
H          H       0.52740   0.57294   0.19258 
H          H       0.63128   0.59144   0.08707 
H          H       0.60955   0.53651   0.06020 
H          H       0.64234   0.56258   0.25669 
H          H       0.37373   0.40584   0.24071 
H          H       0.36581   0.43742   0.07472 
H          H       0.39818   0.46080   0.27640 
H          H       0.58878   0.48741   0.31245 
H          H       0.41695   0.50862   0.02645 
H          H       0.52751   0.35476   0.09007 
H          H       0.56788   0.32049   0.08378 
H          H       0.67009   0.42790   0.34062 
H          H       0.63063   0.46309   0.32857 
H          H       0.48457   0.64395  -0.03653 
H          H       0.44321   0.67652  -0.09197 
H          H       0.33598   0.56740   0.12091 
H          H       0.37719   0.53430   0.16045 
H          H       0.70577   0.40636   0.17971 
H          H       0.29693   0.69818  -0.15824 
H          H       0.55864   0.05320  -0.17581 
H          H       0.41861   0.94621   0.02318 
H          H       0.38798  -0.00123  -0.11907 
H          H       0.42213   0.05469  -0.12596 
H          H       0.38462   0.03136   0.05770 
H          H       0.58097   0.95184  -0.25810 
H          H       0.52606   0.91957  -0.26593 
H          H       0.55337   0.94109  -0.04701 
H          H       0.49641   0.09936  -0.09701 
H          H       0.48500   0.90269  -0.02383 
H          H       0.62227   0.15069   0.18813 
H          H       0.66492   0.22377   0.22384 
H          H       0.57212   0.24332  -0.02350 
H          H       0.52874   0.16899  -0.06646 
H          H       0.35001   0.82854   0.00973 
H          H       0.32054   0.75394   0.03202 
H          H       0.43523   0.76655  -0.16652 
H          H       0.46513   0.84134  -0.17616 
H          H       0.59706   0.28946   0.22174 
H          H       0.30230   0.58840  -0.05649 
H          H       0.95270   0.52880  -0.18656 
H          H       0.05083   0.47814  -0.06453 
H          H       0.92087   0.36456  -0.02255 
H          H       0.96280   0.37261  -0.17242 
H          H       0.93143   0.39547  -0.22815 
H          H       0.03858   0.63850  -0.29678 
H          H       0.05937   0.62518  -0.10022 
H          H       0.00366   0.60367  -0.12242 
H          H       0.90173   0.41831  -0.02642 
H          H       0.10174   0.59158  -0.17664 
H          H       0.82621   0.47909  -0.10281 
H          H       0.75258   0.43164  -0.05095 
H          H       0.78276   0.34953   0.23667 
H          H       0.85388   0.39442   0.18271 
H          H       0.16984   0.52128  -0.25458 
H          H       0.24518   0.56109  -0.23627 
H          H       0.23742   0.66339  -0.00066 
H          H       0.16292   0.62434  -0.02963 
H          H       0.41060   0.70749   0.01864 
H          H       0.74112   2.31573  -0.07190 
H          H       0.69472   2.27130  -0.09025 
H          H       0.73826   1.26708   0.24346 
H          H       0.69726   1.21508  -0.06670 
H          H       0.75046   1.21185  -0.17068 
H          H       0.67727   1.11520   0.18208 
H          H       0.67538   1.14896   0.04736 
H          H       0.69256   1.16560   0.26753 
H          H       0.80479   1.18388   0.03939 
H          H       0.78739   1.15054   0.19977 
H          H       0.79712   1.20100   0.25381 
H          H       0.72571   1.10271   0.08889 
H          H       0.75630   1.11999  -0.08347 
H          H       0.70209   1.10471  -0.09796 
H          H       0.83627   1.26779  -0.19640 
H          H       0.84542   1.24344   0.00018 
H          H       0.85651   1.29391   0.01413 
C          C       0.47557   0.51299   0.62578 
C          C       0.46239   0.47032   0.61522 
C          C       0.49065   0.45681   0.64795 
C          C       0.53167   0.48412   0.70096 
C          C       0.54463   0.52665   0.71521 
C          C       0.51657   0.54030   0.67976 
O          O       0.58416   0.55645   0.77547 
C          C       0.61812   0.56170   0.66346 
O          O       0.42256   0.44021   0.55912 
C          C       0.38879   0.43622   0.66918 
C          C       0.55996   0.46782   0.74256 
C          C       0.44765   0.52942   0.57765 
N          N       0.45967   0.56844   0.59246 
N          N       0.55073   0.43092   0.69017 
C          C       0.43394   0.58634   0.56010 
C          C       0.57542   0.41137   0.70914 
C          C       0.55854   0.37073   0.64627 
C          C       0.58177   0.35092   0.64582 
C          C       0.62274   0.37089   0.71303 
C          C       0.63927   0.41150   0.78223 
C          C       0.61618   0.43169   0.77821 
C          C       0.45197   0.62696   0.49562 
C          C       0.42819   0.64578   0.46690 
C          C       0.38572   0.62496   0.50914 
C          C       0.36797   0.58432   0.57910 
C          C       0.39163   0.56514   0.60256 
C          C       0.64839   0.35025   0.69780 
C          C       0.36027   0.64527   0.47562 
C          C       0.69103   0.37323   0.67327 
C          C       0.31405   0.68355   0.38756 
C          C       0.47746   0.95690   0.41727 
C          C       0.51775   0.98836   0.35928 
C          C       0.52804   0.02989   0.36852 
C          C       0.50072   0.04249   0.43240 
C          C       0.46078   0.01269   0.48353 
C          C       0.44903   0.96887   0.47450 
O          O       0.43532   0.02364   0.58163 
C          C       0.40622   0.02720   0.46591 
O          O       0.54878   0.98269   0.27533 
C          C       0.55162   0.94670   0.30380 
C          C       0.51527   0.08698   0.45158 
C          C       0.46393   0.91230   0.42903 
N          N       0.42561   0.88435   0.40598 
N          N       0.55099   0.11035   0.52654 
C          C       0.40977   0.84063   0.41834 
C          C       0.57300   0.15415   0.55475 
C          C       0.61165   0.17091   0.63712 
C          C       0.63635   0.21319   0.65907 
C          C       0.62403   0.24090   0.60153 
C          C       0.58398   0.22373   0.52241 
C          C       0.55873   0.18081   0.49815 
C          C       0.36879   0.81516   0.47233 
C          C       0.35191   0.77248   0.48257 
C          C       0.37526   0.75396   0.43197 
C          C       0.41650   0.77963   0.37691 
C          C       0.43367   0.82254   0.37118 
C          C       0.65088   0.28679   0.63906 
C          C       0.35597   0.70810   0.43176 
C          C       0.62962   0.30737   0.69136 
C          C       0.31745   0.62160   0.44027 
C          C       0.04561   0.53003   0.34046 
C          C       0.01791   0.54382   0.29920 
C          C       0.97333   0.51691   0.33869 
C          C       0.95790   0.47655   0.40442 
C          C       0.98548   0.46124   0.42429 
C          C       0.03011   0.48942   0.40054 
O          O       0.97376   0.42217   0.49723 
C          C       0.94597   0.38734   0.38659 
O          O       0.03127   0.58013   0.19665 
C          C       0.03295   0.61319   0.30123 
C          C       0.91366   0.45066   0.45426 
C          C       0.09067   0.55880   0.33162 
N          N       0.11651   0.54517   0.34093 
N          N       0.88877   0.46523   0.47384 
C          C       0.16070   0.57008   0.35006 
C          C       0.84599   0.43985   0.52733 
C          C       0.81661   0.45058   0.47244 
C          C       0.77432   0.42321   0.50313 
C          C       0.76040   0.38468   0.59299 
C          C       0.79063   0.37658   0.65951 
C          C       0.83235   0.40294   0.62628 
C          C       0.18465   0.55255   0.29839 
C          C       0.22774   0.57527   0.31102 
C          C       0.24787   0.61593   0.38045 
C          C       0.22346   0.63301   0.43652 
C          C       0.18052   0.61054   0.42045 
C          C       0.71511   0.35498   0.63088 
C          C       0.29381   0.64048   0.40103 
C          C       0.69532   0.31043   0.61482 
C          C       0.37870   0.68865   0.47726 
C          C       0.71776   2.29114   0.51054 
C          C       0.73867   1.26641   0.59523 
N          N       0.71912   1.22287   0.53782 
C          C       0.75129   1.21264   0.47861 
N          N       0.79127   1.25090   0.51912 
C          C       0.78243   1.28135   0.55265 
C          C       0.74119   1.16687   0.56362 
C          C       0.69645   1.14859   0.65472 
C          C       0.78285   1.17592   0.65524 
C          C       0.73159   1.12440   0.46975 
C          C       0.83363   1.26353   0.45490 
O          O       0.80881   1.31759   0.54658 
H          H       0.47999   0.42422   0.63472 
H          H       0.52740   0.57294   0.69258 
H          H       0.63128   0.59144   0.58707 
H          H       0.60955   0.53651   0.56019 
H          H       0.64234   0.56258   0.75669 
H          H       0.37373   0.40584   0.74071 
H          H       0.36581   0.43742   0.57472 
H          H       0.39818   0.46080   0.77640 
H          H       0.58878   0.48741   0.81245 
H          H       0.41695   0.50862   0.52646 
H          H       0.52751   0.35476   0.59007 
H          H       0.56788   0.32049   0.58378 
H          H       0.67009   0.42790   0.84062 
H          H       0.63063   0.46309   0.82857 
H          H       0.48457   0.64395   0.46347 
H          H       0.44321   0.67652   0.40803 
H          H       0.33598   0.56740   0.62091 
H          H       0.37719   0.53430   0.66044 
H          H       0.70577   0.40636   0.67971 
H          H       0.29693   0.69818   0.34176 
H          H       0.55864   0.05320   0.32419 
H          H       0.41861   0.94621   0.52318 
H          H       0.38798  -0.00123   0.38094 
H          H       0.42213   0.05469   0.37405 
H          H       0.38462   0.03136   0.55770 
H          H       0.58097   0.95184   0.24190 
H          H       0.52606   0.91957   0.23407 
H          H       0.55337   0.94109   0.45299 
H          H       0.49641   0.09936   0.40299 
H          H       0.48500   0.90269   0.47617 
H          H       0.62227   0.15069   0.68813 
H          H       0.66492   0.22377   0.72384 
H          H       0.57212   0.24332   0.47651 
H          H       0.52874   0.16899   0.43354 
H          H       0.35001   0.82854   0.50972 
H          H       0.32054   0.75394   0.53202 
H          H       0.43523   0.76655   0.33348 
H          H       0.46513   0.84134   0.32384 
H          H       0.59706   0.28946   0.72174 
H          H       0.30230   0.58840   0.44351 
H          H       0.95270   0.52880   0.31344 
H          H       0.05083   0.47814   0.43547 
H          H       0.92087   0.36456   0.47746 
H          H       0.96280   0.37261   0.32758 
H          H       0.93143   0.39547   0.27186 
H          H       0.03858   0.63850   0.20322 
H          H       0.05937   0.62518   0.39978 
H          H       0.00366   0.60367   0.37758 
H          H       0.90173   0.41831   0.47359 
H          H       0.10174   0.59158   0.32336 
H          H       0.82621   0.47909   0.39719 
H          H       0.75258   0.43164   0.44906 
H          H       0.78276   0.34953   0.73667 
H          H       0.85388   0.39442   0.68272 
H          H       0.16984   0.52128   0.24542 
H          H       0.24518   0.56109   0.26373 
H          H       0.23742   0.66339   0.49935 
H          H       0.16292   0.62434   0.47037 
H          H       0.41060   0.70749   0.51864 
H          H       0.74112   2.31573   0.42810 
H          H       0.69472   2.27130   0.40975 
H          H       0.73826   1.26708   0.74346 
H          H       0.69726   1.21508   0.43330 
H          H       0.75046   1.21185   0.32932 
H          H       0.67727   1.11520   0.68208 
H          H       0.67538   1.14896   0.54736 
H          H       0.69256   1.16560   0.76753 
H          H       0.80479   1.18388   0.53940 
H          H       0.78739   1.15054   0.69977 
H          H       0.79712   1.20100   0.75381 
H          H       0.72571   1.10271   0.58888 
H          H       0.75630   1.11999   0.41653 
H          H       0.70209   1.10471   0.40204 
H          H       0.83627   1.26779   0.30360 
H          H       0.84542   1.24344   0.50018 
H          H       0.85651   1.29391   0.51413 
