data_crystal
 
_cell_length_a    37.20930
_cell_length_b    37.20160
_cell_length_c    7.08000
_cell_angle_alpha 90.05960
_cell_angle_beta  89.98420
_cell_angle_gamma 120.05150
 
_symmetry_space_group_name_Hall 'P 1'
_symmetry_space_group_name_H-M  'P 1'
 
loop_
_symmetry_equiv_pos_as_xyz
 'x,y,z' 
 
loop_
_atom_site_label
_atom_site_type_symbol
_atom_site_fract_x
_atom_site_fract_y
_atom_site_fract_z
C          C       0.46295   0.49578  -0.11437 
C          C       0.45045   0.45295  -0.12181 
C          C       0.47960   0.44033  -0.08514 
C          C       0.52105   0.46907  -0.03660 
C          C       0.53349   0.51184  -0.03127 
C          C       0.50431   0.52432  -0.06525 
O          O       0.57313   0.54266   0.02713 
C          C       0.60683   0.55039  -0.09444 
O          O       0.41072   0.42193  -0.18010 
C          C       0.37615   0.41692  -0.07151 
C          C       0.55085   0.45451   0.00782 
C          C       0.43411   0.51155  -0.15776 
N          N       0.44478   0.54986  -0.11851 
N          N       0.53898   0.41502   0.00928 
C          C       0.42080   0.57022  -0.14269 
C          C       0.56640   0.39868   0.03753 
C          C       0.55002   0.35776   0.10089 
C          C       0.57561   0.34039   0.12198 
C          C       0.61809   0.36346   0.07752 
C          C       0.63432   0.40434   0.01162 
C          C       0.60878   0.42166  -0.00953 
C          C       0.43977   0.61234  -0.09584 
C          C       0.41813   0.63393  -0.11066 
C          C       0.37656   0.61376  -0.17281 
C          C       0.35734   0.57130  -0.21943 
C          C       0.37915   0.54965  -0.20455 
C          C       0.64571   0.34539   0.10243 
C          C       0.35366   0.63705  -0.18607 
C          C       0.68671   0.37039   0.16068 
C          C       0.31230   0.68276  -0.19370 
C          C       0.48645   0.95024  -0.11364 
C          C       0.52871   0.98159  -0.10476 
C          C       0.53975   0.02247  -0.05901 
C          C       0.51022   0.03431  -0.01287 
C          C       0.46763   0.00371  -0.01994 
C          C       0.45607   0.96065  -0.06788 
O          O       0.43530   0.01093   0.03152 
C          C       0.43199   0.04203  -0.07318 
O          O       0.56092   0.97499  -0.16411 
C          C       0.57012   0.94936  -0.04811 
C          C       0.52505   0.07847   0.03856 
C          C       0.47390   0.90680  -0.16609 
N          N       0.43597   0.88034  -0.21311 
N          N       0.56449   0.10515   0.02866 
C          C       0.41920   0.83659  -0.24573 
C          C       0.58552   0.14925   0.05757 
C          C       0.62645   0.17184  -0.00364 
C          C       0.64828   0.21493   0.00662 
C          C       0.63157   0.23745   0.09234 
C          C       0.58994   0.21409   0.15662 
C          C       0.56687   0.17056   0.13709 
C          C       0.37895   0.81356  -0.31877 
C          C       0.35911   0.77024  -0.32922 
C          C       0.37862   0.74879  -0.26031 
C          C       0.41990   0.77217  -0.19600 
C          C       0.43999   0.81549  -0.18943 
C          C       0.65500   0.28467   0.10431 
C          C       0.35481   0.70275  -0.23609 
C          C       0.63094   0.30343   0.06857 
C          C       0.31123   0.61796  -0.14038 
C          C       0.05040   0.55468   0.12486 
C          C       0.02225   0.56911   0.10132 
C          C       0.97787   0.54192   0.15063 
C          C       0.96368   0.50195   0.22286 
C          C       0.99197   0.48761   0.24419 
C          C       0.03598   0.51467   0.19576 
O          O       0.98039   0.44982   0.33192 
C          C       0.95630   0.41407   0.21701 
O          O       0.03374   0.60532  -0.00061 
C          C       0.04164   0.64030   0.11321 
C          C       0.91959   0.47440   0.27500 
C          C       0.09489   0.58100   0.07633 
N          N       0.11567   0.56379   0.01931 
N          N       0.89010   0.47853   0.19864 
C          C       0.15913   0.58436  -0.02499 
C          C       0.84634   0.44941   0.21579 
C          C       0.81790   0.45895   0.13383 
C          C       0.77561   0.42888   0.12268 
C          C       0.76006   0.38861   0.20039 
C          C       0.78862   0.38182   0.29957 
C          C       0.83104   0.41025   0.29979 
C          C       0.17522   0.56081  -0.10300 
C          C       0.21765   0.57869  -0.14022 
C          C       0.24520   0.62057  -0.09633 
C          C       0.22895   0.64414  -0.01561 
C          C       0.18642   0.62634   0.01846 
C          C       0.71464   0.35539   0.17496 
C          C       0.29015   0.64051  -0.14521 
C          C       0.69837   0.31096   0.15485 
C          C       0.37484   0.67923  -0.23731 
C          C       0.72388   2.29093   0.21410 
C          C       0.76988   2.24467   0.14483 
C          C       0.78639   2.29001   0.20306 
C          C       0.83183   2.31338   0.14021 
C          C       0.84093   2.27938   0.07254 
N          N       0.80511   2.23834   0.11353 
C          C       0.88221   1.28451   0.13475 
O          O       0.88435   1.25161   0.21891 
O          O       0.91411   1.31715   0.10319 
O          O       0.76335   1.30776   0.12804 
H          H       0.46944   0.40754  -0.09527 
H          H       0.51454   0.55712  -0.05426 
H          H       0.61433   0.57752  -0.18548 
H          H       0.60034   0.52330  -0.18366 
H          H       0.63463   0.55854  -0.00673 
H          H       0.36178   0.38646   0.00142 
H          H       0.35271   0.41726  -0.16692 
H          H       0.38491   0.44173   0.03445 
H          H       0.58296   0.47739   0.04170 
H          H       0.40419   0.49087  -0.21901 
H          H       0.51742   0.33943   0.13639 
H          H       0.56265   0.30929   0.17775 
H          H       0.66674   0.42270  -0.02743 
H          H       0.62198   0.45247  -0.06908 
H          H       0.47160   0.62862  -0.04564 
H          H       0.43379   0.66628  -0.06856 
H          H       0.32554   0.55472  -0.26933 
H          H       0.36312   0.51711  -0.24116 
H          H       0.69694   0.40239   0.19815 
H          H       0.29636   0.70039  -0.19541 
H          H       0.57245   0.04533  -0.06050 
H          H       0.42350   0.93726  -0.06930 
H          H       0.40153   0.02732  -0.14460 
H          H       0.45766   0.05831  -0.17655 
H          H       0.43298   0.06552   0.02584 
H          H       0.60032   0.96907   0.02313 
H          H       0.57306   0.92651  -0.13834 
H          H       0.54559   0.93152   0.05729 
H          H       0.50348   0.08891   0.07260 
H          H       0.49644   0.89693  -0.15990 
H          H       0.64123   0.15595  -0.06649 
H          H       0.67852   0.22969  -0.05275 
H          H       0.57525   0.22946   0.22429 
H          H       0.53524   0.15388   0.18843 
H          H       0.36263   0.82931  -0.36451 
H          H       0.32814   0.75347  -0.38848 
H          H       0.43603   0.75713  -0.13986 
H          H       0.47082   0.83185  -0.12972 
H          H       0.59943   0.28476   0.01666 
H          H       0.29490   0.58595  -0.09416 
H          H       0.95657   0.55340   0.12862 
H          H       0.05714   0.50306   0.21720 
H          H       0.94419   0.38588   0.30749 
H          H       0.97640   0.41116   0.10988 
H          H       0.92922   0.41484   0.15110 
H          H       0.04855   0.66685   0.02015 
H          H       0.06925   0.64960   0.20359 
H          H       0.01386   0.63345   0.19969 
H          H       0.91248   0.44769   0.36300 
H          H       0.10923   0.61453   0.08400 
H          H       0.82876   0.48895   0.06813 
H          H       0.75562   0.43685   0.04376 
H          H       0.77867   0.35523   0.38433 
H          H       0.85106   0.40118   0.36983 
H          H       0.15453   0.52863  -0.13920 
H          H       0.22849   0.56021  -0.21134 
H          H       0.24908   0.67628   0.02472 
H          H       0.17545   0.64525   0.08403 
H          H       0.40715   0.69381  -0.27836 
H          H       0.70794   2.25769   0.19588 
H          H       0.72685   2.29475   0.36286 
H          H       0.75099   2.23765   0.01809 
H          H       0.74774   2.22129   0.24425 
H          H       0.78644   2.29172   0.35277 
H          H       0.85377   2.33309   0.25072 
H          H       0.83687   2.33655   0.03088 
H          H       0.84327   2.28137  -0.07643 
H          H       0.80962   2.22582   0.23718 
H          H       0.91387   1.25934   0.25202 
C          C       0.46295   0.49578   0.38563 
C          C       0.45045   0.45295   0.37819 
C          C       0.47960   0.44033   0.41486 
C          C       0.52105   0.46907   0.46339 
C          C       0.53349   0.51184   0.46874 
C          C       0.50431   0.52432   0.43475 
O          O       0.57313   0.54266   0.52713 
C          C       0.60683   0.55039   0.40557 
O          O       0.41072   0.42193   0.31989 
C          C       0.37615   0.41692   0.42848 
C          C       0.55085   0.45451   0.50782 
C          C       0.43411   0.51155   0.34224 
N          N       0.44478   0.54986   0.38149 
N          N       0.53898   0.41502   0.50928 
C          C       0.42080   0.57022   0.35730 
C          C       0.56640   0.39868   0.53753 
C          C       0.55002   0.35776   0.60089 
C          C       0.57561   0.34039   0.62199 
C          C       0.61809   0.36346   0.57752 
C          C       0.63432   0.40434   0.51162 
C          C       0.60878   0.42166   0.49047 
C          C       0.43977   0.61234   0.40416 
C          C       0.41813   0.63393   0.38934 
C          C       0.37656   0.61376   0.32719 
C          C       0.35734   0.57130   0.28057 
C          C       0.37915   0.54965   0.29545 
C          C       0.64571   0.34539   0.60243 
C          C       0.35366   0.63705   0.31393 
C          C       0.68671   0.37039   0.66068 
C          C       0.31230   0.68276   0.30630 
C          C       0.48645   0.95024   0.38636 
C          C       0.52871   0.98159   0.39525 
C          C       0.53975   0.02247   0.44099 
C          C       0.51022   0.03431   0.48713 
C          C       0.46763   0.00371   0.48006 
C          C       0.45607   0.96065   0.43212 
O          O       0.43530   0.01093   0.53152 
C          C       0.43199   0.04203   0.42683 
O          O       0.56092   0.97499   0.33589 
C          C       0.57012   0.94936   0.45189 
C          C       0.52505   0.07847   0.53856 
C          C       0.47390   0.90680   0.33391 
N          N       0.43597   0.88034   0.28689 
N          N       0.56449   0.10515   0.52866 
C          C       0.41920   0.83659   0.25426 
C          C       0.58552   0.14925   0.55757 
C          C       0.62645   0.17184   0.49636 
C          C       0.64828   0.21493   0.50662 
C          C       0.63157   0.23745   0.59234 
C          C       0.58994   0.21409   0.65662 
C          C       0.56687   0.17056   0.63709 
C          C       0.37895   0.81356   0.18123 
C          C       0.35911   0.77024   0.17077 
C          C       0.37862   0.74879   0.23969 
C          C       0.41990   0.77217   0.30400 
C          C       0.43999   0.81549   0.31056 
C          C       0.65500   0.28467   0.60431 
C          C       0.35481   0.70275   0.26391 
C          C       0.63094   0.30343   0.56857 
C          C       0.31123   0.61796   0.35962 
C          C       0.05040   0.55468   0.62486 
C          C       0.02225   0.56911   0.60131 
C          C       0.97787   0.54192   0.65063 
C          C       0.96368   0.50195   0.72286 
C          C       0.99197   0.48761   0.74419 
C          C       0.03598   0.51467   0.69576 
O          O       0.98039   0.44982   0.83192 
C          C       0.95630   0.41407   0.71701 
O          O       0.03374   0.60532   0.49938 
C          C       0.04164   0.64030   0.61321 
C          C       0.91959   0.47440   0.77501 
C          C       0.09489   0.58100   0.57633 
N          N       0.11567   0.56379   0.51931 
N          N       0.89010   0.47853   0.69864 
C          C       0.15913   0.58436   0.47500 
C          C       0.84634   0.44941   0.71579 
C          C       0.81790   0.45895   0.63383 
C          C       0.77561   0.42888   0.62267 
C          C       0.76006   0.38861   0.70039 
C          C       0.78862   0.38182   0.79957 
C          C       0.83104   0.41025   0.79979 
C          C       0.17522   0.56081   0.39700 
C          C       0.21765   0.57869   0.35978 
C          C       0.24520   0.62057   0.40367 
C          C       0.22895   0.64414   0.48438 
C          C       0.18642   0.62634   0.51846 
C          C       0.71464   0.35539   0.67496 
C          C       0.29015   0.64051   0.35478 
C          C       0.69837   0.31096   0.65485 
C          C       0.37484   0.67923   0.26269 
C          C       0.72388   2.29093   0.71410 
C          C       0.76988   2.24467   0.64482 
C          C       0.78639   2.29001   0.70306 
C          C       0.83183   2.31338   0.64021 
C          C       0.84093   2.27938   0.57254 
N          N       0.80511   2.23834   0.61352 
C          C       0.88221   1.28451   0.63475 
O          O       0.88435   1.25161   0.71891 
O          O       0.91411   1.31715   0.60319 
O          O       0.76335   1.30776   0.62804 
H          H       0.46944   0.40754   0.40473 
H          H       0.51454   0.55712   0.44574 
H          H       0.61433   0.57752   0.31452 
H          H       0.60034   0.52330   0.31634 
H          H       0.63463   0.55854   0.49327 
H          H       0.36178   0.38646   0.50142 
H          H       0.35271   0.41726   0.33308 
H          H       0.38491   0.44173   0.53446 
H          H       0.58296   0.47739   0.54170 
H          H       0.40419   0.49087   0.28099 
H          H       0.51742   0.33943   0.63639 
H          H       0.56265   0.30929   0.67775 
H          H       0.66674   0.42270   0.47257 
H          H       0.62198   0.45247   0.43092 
H          H       0.47160   0.62862   0.45435 
H          H       0.43379   0.66628   0.43144 
H          H       0.32554   0.55472   0.23067 
H          H       0.36312   0.51711   0.25883 
H          H       0.69694   0.40239   0.69815 
H          H       0.29636   0.70039   0.30459 
H          H       0.57245   0.04533   0.43949 
H          H       0.42350   0.93726   0.43070 
H          H       0.40153   0.02732   0.35540 
H          H       0.45766   0.05831   0.32345 
H          H       0.43298   0.06552   0.52585 
H          H       0.60032   0.96907   0.52313 
H          H       0.57306   0.92651   0.36166 
H          H       0.54559   0.93152   0.55729 
H          H       0.50348   0.08891   0.57260 
H          H       0.49644   0.89693   0.34010 
H          H       0.64123   0.15595   0.43351 
H          H       0.67852   0.22969   0.44725 
H          H       0.57525   0.22946   0.72429 
H          H       0.53524   0.15388   0.68843 
H          H       0.36263   0.82931   0.13549 
H          H       0.32814   0.75347   0.11152 
H          H       0.43603   0.75713   0.36014 
H          H       0.47082   0.83185   0.37028 
H          H       0.59943   0.28476   0.51666 
H          H       0.29490   0.58595   0.40584 
H          H       0.95657   0.55340   0.62862 
H          H       0.05714   0.50306   0.71720 
H          H       0.94419   0.38588   0.80749 
H          H       0.97640   0.41116   0.60987 
H          H       0.92922   0.41484   0.65110 
H          H       0.04855   0.66685   0.52015 
H          H       0.06925   0.64960   0.70359 
H          H       0.01386   0.63345   0.69969 
H          H       0.91248   0.44769   0.86300 
H          H       0.10923   0.61453   0.58400 
H          H       0.82876   0.48895   0.56813 
H          H       0.75562   0.43685   0.54376 
H          H       0.77867   0.35523   0.88433 
H          H       0.85106   0.40118   0.86982 
H          H       0.15453   0.52863   0.36079 
H          H       0.22849   0.56021   0.28866 
H          H       0.24908   0.67628   0.52471 
H          H       0.17545   0.64525   0.58403 
H          H       0.40715   0.69381   0.22164 
H          H       0.70794   2.25769   0.69588 
H          H       0.72685   2.29475   0.86286 
H          H       0.75099   2.23765   0.51809 
H          H       0.74774   2.22129   0.74425 
H          H       0.78644   2.29172   0.85277 
H          H       0.85377   2.33309   0.75072 
H          H       0.83687   2.33655   0.53088 
H          H       0.84327   2.28137   0.42356 
H          H       0.80962   2.22582   0.73718 
H          H       0.91387   1.25934   0.75202 
