data_crystal

_cell_length_a    37.61990
_cell_length_b    37.60630
_cell_length_c    7.02000
_cell_angle_alpha 90.01450
_cell_angle_beta  89.94130
_cell_angle_gamma 120.04660

_space_group_name_Hall 'P 1'
_space_group_name_H-M_alt  'P 1'

loop_
_symmetry_equiv_pos_as_xyz
'x,y,z' 

loop_
_atom_site_label
_atom_site_type_symbol
_atom_site_fract_x
_atom_site_fract_y
_atom_site_fract_z
C          C       0.47973   0.51374  -0.00999 
C          C       0.46374   0.47098  -0.00215 
C          C       0.48859   0.45519   0.05851 
C          C       0.53016   0.48163   0.10092 
C          C       0.54793   0.52423   0.06396 
C          C       0.52196   0.54003   0.02192 
O          O       0.59033   0.55247   0.08622 
C          C       0.62015   0.54421  -0.00277 
O          O       0.42568   0.44471  -0.08532 
C          C       0.39342   0.41809   0.04052 
C          C       0.55569   0.46581   0.18100 
C          C       0.45158   0.52997  -0.04830 
N          N       0.46232   0.56812  -0.01324 
N          N       0.54530   0.42719   0.17146 
C          C       0.43649   0.58640  -0.02943 
C          C       0.57238   0.41100   0.20394 
C          C       0.55545   0.36954   0.25245 
C          C       0.57979   0.35099   0.25620 
C          C       0.62160   0.37304   0.20331 
C          C       0.63864   0.41510   0.15948 
C          C       0.61458   0.43390   0.16226 
C          C       0.45218   0.62688   0.03265 
C          C       0.42811   0.64573   0.02853 
C          C       0.38750   0.62472  -0.04151 
C          C       0.37210   0.58416  -0.10704 
C          C       0.39602   0.56518  -0.10016 
C          C       0.64642   0.35182   0.18238 
C          C       0.36170   0.64504  -0.05213 
C          C       0.68925   0.37358   0.19702 
C          C       0.31332   0.68197  -0.10409 
C          C       0.47157   0.95497  -0.04199 
C          C       0.51121   0.98513  -0.10038 
C          C       0.52420   0.02698  -0.07618 
C          C       0.49785   0.04053  -0.00515 
C          C       0.45605   0.01078   0.02618 
C          C       0.44374   0.96697   0.01858 
O          O       0.42549   0.02005   0.07693 
C          C       0.42212   0.04990  -0.03551 
O          O       0.53494   0.97453  -0.21587 
C          C       0.56187   0.96426  -0.11979 
C          C       0.51438   0.08497   0.03660 
C          C       0.45975   0.91126  -0.03527 
N          N       0.42235   0.88281  -0.07209 
N          N       0.55290   0.11119   0.00700 
C          C       0.40766   0.83946  -0.06982 
C          C       0.57448   0.15495   0.03534 
C          C       0.61480   0.17681  -0.02809 
C          C       0.63750   0.21937  -0.01073 
C          C       0.62260   0.24216   0.08190 
C          C       0.58132   0.21949   0.14761 
C          C       0.55727   0.17673   0.12037 
C          C       0.36700   0.81296  -0.01706 
C          C       0.35092   0.77054  -0.01732 
C          C       0.37458   0.75314  -0.07978 
C          C       0.41562   0.78013  -0.13476 
C          C       0.43214   0.82286  -0.12790 
C          C       0.64887   0.28856   0.11197 
C          C       0.35604   0.70723  -0.08468 
C          C       0.62724   0.31004   0.13547 
C          C       0.31837   0.62125  -0.05085 
C          C       0.04586   0.52896  -0.06892 
C          C       0.01820   0.54319  -0.09776 
C          C       0.97382   0.51579  -0.05989 
C          C       0.95814   0.47425  -0.01403 
C          C       0.98569   0.45877  -0.01063 
C          C       0.03032   0.48759  -0.02367 
O          O       0.97363   0.41731   0.01992 
C          C       0.94176   0.38744  -0.09846 
O          O       0.03093   0.57994  -0.19566 
C          C       0.03649   0.61332  -0.07988 
C          C       0.91381   0.44753   0.03112 
C          C       0.09081   0.55756  -0.08112 
N          N       0.11647   0.54386  -0.08296 
N          N       0.88843   0.46161   0.03978 
C          C       0.16062   0.56853  -0.08266 
C          C       0.84524   0.43673   0.08322 
C          C       0.81776   0.44961   0.02553 
C          C       0.77515   0.42359   0.04791 
C          C       0.75906   0.38442   0.13301 
C          C       0.78740   0.37475   0.21066 
C          C       0.82947   0.39924   0.18014 
C          C       0.18375   0.55052  -0.13942 
C          C       0.22678   0.57314  -0.13897 
C          C       0.24779   0.61430  -0.07698 
C          C       0.22423   0.63176  -0.01418 
C          C       0.18136   0.60943  -0.01850 
C          C       0.71331   0.35574   0.15155 
C          C       0.29380   0.63931  -0.07823 
C          C       0.69345   0.31238   0.11252 
C          C       0.38002   0.68826  -0.06426 
O          O       0.71762   2.29707   0.03088 
C          C       0.72809   2.27197   0.14564 
C          C       0.75554   2.25720   0.04978 
C          C       0.79887   2.29178  -0.00643 
C          C       0.82762   2.27545   0.03491 
C          C       0.79982   2.23137   0.09646 
N          N       0.76199   2.22847   0.16556 
H          H       0.47553   0.42224   0.06915 
H          H       0.53517   0.57294   0.00850 
H          H       0.62893   0.56010  -0.13876 
H          H       0.61155   0.51058  -0.01373 
H          H       0.64929   0.55961   0.07812 
H          H       0.40248   0.39897   0.12603 
H          H       0.36586   0.39743  -0.04518 
H          H       0.38479   0.43647   0.13343 
H          H       0.58606   0.48963   0.22514 
H          H       0.42043   0.50818  -0.09308 
H          H       0.52305   0.35136   0.28531 
H          H       0.56539   0.31905   0.29802 
H          H       0.67012   0.43341   0.11284 
H          H       0.62878   0.46573   0.12000 
H          H       0.48304   0.64353   0.08984 
H          H       0.44119   0.67635   0.08642 
H          H       0.34189   0.56713  -0.17025 
H          H       0.38274   0.53438  -0.15538 
H          H       0.70450   0.40550   0.23841 
H          H       0.29496   0.69571  -0.14028 
H          H       0.55531   0.04910  -0.11815 
H          H       0.41305   0.94427   0.06307 
H          H       0.39201   0.03473  -0.10779 
H          H       0.44770   0.06547  -0.14013 
H          H       0.42279   0.07388   0.05904 
H          H       0.58116   0.98853  -0.01598 
H          H       0.58281   0.96239  -0.22473 
H          H       0.54452   0.93327  -0.05688 
H          H       0.49404   0.09524   0.09018 
H          H       0.48202   0.90327   0.01568 
H          H       0.62823   0.16070  -0.09833 
H          H       0.66662   0.23405  -0.07318 
H          H       0.56763   0.23408   0.22795 
H          H       0.52613   0.16097   0.17310 
H          H       0.34793   0.82538   0.02900 
H          H       0.31989   0.75151   0.03453 
H          H       0.43478   0.76849  -0.18842 
H          H       0.46339   0.84278  -0.17495 
H          H       0.59479   0.29443   0.10634 
H          H       0.30355   0.58863  -0.02424 
H          H       0.95348   0.52826  -0.07384 
H          H       0.05091   0.47570  -0.00086 
H          H       0.91706   0.36403  -0.00787 
H          H       0.95426   0.37141  -0.18292 
H          H       0.92806   0.40139  -0.19181 
H          H       0.04292   0.63972  -0.17272 
H          H       0.06378   0.62303   0.01256 
H          H       0.00832   0.60512   0.00421 
H          H       0.90240   0.41509   0.05248 
H          H       0.10192   0.59023  -0.08568 
H          H       0.82921   0.47892  -0.04552 
H          H       0.75474   0.43357  -0.00709 
H          H       0.77798   0.35058   0.31067 
H          H       0.84955   0.38971   0.24358 
H          H       0.16842   0.51895  -0.18760 
H          H       0.24332   0.55844  -0.19123 
H          H       0.23868   0.66258   0.04297 
H          H       0.16491   0.62407   0.03490 
H          H       0.41294   0.70726  -0.05800 
H          H       0.70050   2.24400   0.18907 
H          H       0.74382   2.28936   0.26542 
H          H       0.73645   2.23879  -0.06707 
H          H       0.80203   2.30034  -0.15368 
H          H       0.80842   2.32092   0.06878 
H          H       0.84996   2.29511   0.14282 
H          H       0.84703   2.27641  -0.08331 
H          H       0.81507   2.22234   0.20350 
H          H       0.79239   2.20956  -0.02142 
H          H       0.73752   2.19834   0.14911 
C          C       0.47973   0.51374   0.49001 
C          C       0.46374   0.47098   0.49785 
C          C       0.48859   0.45519   0.55851 
C          C       0.53016   0.48163   0.60092 
C          C       0.54793   0.52423   0.56396 
C          C       0.52196   0.54003   0.52192 
O          O       0.59033   0.55247   0.58622 
C          C       0.62015   0.54421   0.49723 
O          O       0.42568   0.44471   0.41468 
C          C       0.39342   0.41809   0.54052 
C          C       0.55569   0.46581   0.68100 
C          C       0.45158   0.52997   0.45169 
N          N       0.46232   0.56812   0.48676 
N          N       0.54530   0.42719   0.67146 
C          C       0.43649   0.58640   0.47057 
C          C       0.57238   0.41100   0.70394 
C          C       0.55545   0.36954   0.75245 
C          C       0.57979   0.35099   0.75619 
C          C       0.62160   0.37304   0.70331 
C          C       0.63864   0.41510   0.65948 
C          C       0.61458   0.43390   0.66226 
C          C       0.45218   0.62688   0.53265 
C          C       0.42811   0.64573   0.52853 
C          C       0.38750   0.62472   0.45849 
C          C       0.37210   0.58416   0.39297 
C          C       0.39602   0.56518   0.39984 
C          C       0.64642   0.35182   0.68238 
C          C       0.36170   0.64504   0.44787 
C          C       0.68925   0.37358   0.69702 
C          C       0.31332   0.68197   0.39591 
C          C       0.47157   0.95497   0.45801 
C          C       0.51121   0.98513   0.39963 
C          C       0.52420   0.02698   0.42381 
C          C       0.49785   0.04053   0.49485 
C          C       0.45605   0.01078   0.52617 
C          C       0.44374   0.96697   0.51858 
O          O       0.42549   0.02005   0.57693 
C          C       0.42212   0.04990   0.46449 
O          O       0.53494   0.97453   0.28412 
C          C       0.56187   0.96426   0.38020 
C          C       0.51438   0.08497   0.53660 
C          C       0.45975   0.91126   0.46472 
N          N       0.42235   0.88281   0.42791 
N          N       0.55290   0.11119   0.50700 
C          C       0.40766   0.83946   0.43018 
C          C       0.57448   0.15495   0.53534 
C          C       0.61480   0.17681   0.47190 
C          C       0.63750   0.21937   0.48926 
C          C       0.62260   0.24216   0.58191 
C          C       0.58132   0.21949   0.64761 
C          C       0.55727   0.17673   0.62037 
C          C       0.36700   0.81296   0.48295 
C          C       0.35092   0.77054   0.48268 
C          C       0.37458   0.75314   0.42022 
C          C       0.41562   0.78013   0.36523 
C          C       0.43214   0.82286   0.37209 
C          C       0.64887   0.28856   0.61197 
C          C       0.35604   0.70723   0.41532 
C          C       0.62724   0.31004   0.63547 
C          C       0.31837   0.62125   0.44915 
C          C       0.04586   0.52896   0.43107 
C          C       0.01820   0.54319   0.40224 
C          C       0.97382   0.51579   0.44011 
C          C       0.95814   0.47425   0.48597 
C          C       0.98569   0.45877   0.48937 
C          C       0.03032   0.48759   0.47633 
O          O       0.97363   0.41731   0.51992 
C          C       0.94176   0.38744   0.40154 
O          O       0.03093   0.57994   0.30434 
C          C       0.03649   0.61332   0.42012 
C          C       0.91381   0.44753   0.53112 
C          C       0.09081   0.55756   0.41887 
N          N       0.11647   0.54386   0.41704 
N          N       0.88843   0.46161   0.53978 
C          C       0.16062   0.56853   0.41734 
C          C       0.84524   0.43673   0.58322 
C          C       0.81776   0.44961   0.52553 
C          C       0.77515   0.42359   0.54791 
C          C       0.75906   0.38442   0.63301 
C          C       0.78740   0.37475   0.71066 
C          C       0.82947   0.39924   0.68014 
C          C       0.18375   0.55052   0.36058 
C          C       0.22678   0.57314   0.36103 
C          C       0.24779   0.61430   0.42301 
C          C       0.22423   0.63176   0.48581 
C          C       0.18136   0.60943   0.48150 
C          C       0.71331   0.35574   0.65155 
C          C       0.29380   0.63931   0.42177 
C          C       0.69345   0.31238   0.61252 
C          C       0.38002   0.68826   0.43574 
O          O       0.71762   2.29707   0.53088 
C          C       0.72809   2.27197   0.64564 
C          C       0.75554   2.25720   0.54978 
C          C       0.79887   2.29178   0.49356 
C          C       0.82762   2.27545   0.53491 
C          C       0.79982   2.23137   0.59646 
N          N       0.76199   2.22847   0.66556 
H          H       0.47553   0.42224   0.56915 
H          H       0.53517   0.57294   0.50850 
H          H       0.62893   0.56010   0.36124 
H          H       0.61155   0.51058   0.48627 
H          H       0.64929   0.55961   0.57812 
H          H       0.40248   0.39897   0.62604 
H          H       0.36586   0.39743   0.45482 
H          H       0.38479   0.43647   0.63343 
H          H       0.58606   0.48963   0.72514 
H          H       0.42043   0.50818   0.40691 
H          H       0.52305   0.35136   0.78531 
H          H       0.56539   0.31905   0.79802 
H          H       0.67012   0.43341   0.61284 
H          H       0.62878   0.46573   0.62000 
H          H       0.48304   0.64353   0.58984 
H          H       0.44119   0.67635   0.58642 
H          H       0.34189   0.56713   0.32975 
H          H       0.38274   0.53438   0.34462 
H          H       0.70450   0.40550   0.73841 
H          H       0.29496   0.69571   0.35971 
H          H       0.55531   0.04910   0.38185 
H          H       0.41305   0.94427   0.56307 
H          H       0.39201   0.03473   0.39220 
H          H       0.44770   0.06547   0.35987 
H          H       0.42279   0.07388   0.55904 
H          H       0.58116   0.98853   0.48401 
H          H       0.58281   0.96239   0.27527 
H          H       0.54452   0.93327   0.44311 
H          H       0.49404   0.09524   0.59018 
H          H       0.48202   0.90327   0.51568 
H          H       0.62823   0.16070   0.40167 
H          H       0.66662   0.23405   0.42681 
H          H       0.56763   0.23408   0.72795 
H          H       0.52613   0.16097   0.67310 
H          H       0.34793   0.82538   0.52900 
H          H       0.31989   0.75151   0.53452 
H          H       0.43478   0.76849   0.31158 
H          H       0.46339   0.84278   0.32504 
H          H       0.59479   0.29443   0.60634 
H          H       0.30355   0.58863   0.47575 
H          H       0.95348   0.52826   0.42616 
H          H       0.05091   0.47570   0.49914 
H          H       0.91706   0.36403   0.49213 
H          H       0.95426   0.37141   0.31708 
H          H       0.92806   0.40139   0.30819 
H          H       0.04292   0.63972   0.32727 
H          H       0.06378   0.62303   0.51256 
H          H       0.00832   0.60512   0.50421 
H          H       0.90240   0.41509   0.55247 
H          H       0.10192   0.59023   0.41431 
H          H       0.82921   0.47892   0.45448 
H          H       0.75474   0.43357   0.49290 
H          H       0.77798   0.35058   0.81067 
H          H       0.84955   0.38971   0.74358 
H          H       0.16842   0.51895   0.31240 
H          H       0.24332   0.55844   0.30877 
H          H       0.23868   0.66258   0.54296 
H          H       0.16491   0.62407   0.53490 
H          H       0.41294   0.70726   0.44200 
H          H       0.70050   2.24400   0.68907 
H          H       0.74382   2.28936   0.76543 
H          H       0.73645   2.23879   0.43293 
H          H       0.80203   2.30034   0.34632 
H          H       0.80842   2.32092   0.56877 
H          H       0.84996   2.29511   0.64282 
H          H       0.84703   2.27641   0.41669 
H          H       0.81507   2.22234   0.70350 
H          H       0.79239   2.20956   0.47857 
H          H       0.73752   2.19834   0.64911 
