data_crystal
 
_cell_length_a    37.20930
_cell_length_b    37.20160
_cell_length_c    3.54000
_cell_angle_alpha 90.05960
_cell_angle_beta  89.98420
_cell_angle_gamma 120.05150
 
_symmetry_space_group_name_Hall 'P 1'
_symmetry_space_group_name_H-M  'P 1'
 
loop_
_symmetry_equiv_pos_as_xyz
 'x,y,z' 
 
loop_
_atom_site_label
_atom_site_type_symbol
_atom_site_fract_x
_atom_site_fract_y
_atom_site_fract_z
_atom_site_charge
C          C       0.46295   0.49578  -0.22874   0.0000000000
C          C       0.45045   0.45295  -0.24362   0.0000000000
C          C       0.47960   0.44033  -0.17028   0.0000000000
C          C       0.52105   0.46907  -0.07321   0.0000000000
C          C       0.53349   0.51184  -0.06253   0.0000000000
C          C       0.50431   0.52432  -0.13050   0.0000000000
O          O       0.57313   0.54266   0.05426   0.0000000000
C          C       0.60683   0.55039  -0.18887   0.0000000000
O          O       0.41072   0.42193  -0.36021   0.0000000000
C          C       0.37615   0.41692  -0.14303   0.0000000000
C          C       0.55085   0.45451   0.01563   0.0000000000
C          C       0.43411   0.51155  -0.31551   0.0000000000
N          N       0.44478   0.54986  -0.23703   0.0000000000
N          N       0.53898   0.41502   0.01856   0.0000000000
C          C       0.42080   0.57022  -0.28539   0.0000000000
C          C       0.56640   0.39868   0.07505   0.0000000000
C          C       0.55002   0.35776   0.20179   0.0000000000
C          C       0.57561   0.34039   0.24397   0.0000000000
C          C       0.61809   0.36346   0.15505   0.0000000000
C          C       0.63432   0.40434   0.02325   0.0000000000
C          C       0.60878   0.42166  -0.01906   0.0000000000
C          C       0.43977   0.61234  -0.19168   0.0000000000
C          C       0.41813   0.63393  -0.22131   0.0000000000
C          C       0.37656   0.61376  -0.34562   0.0000000000
C          C       0.35734   0.57130  -0.43885   0.0000000000
C          C       0.37915   0.54965  -0.40911   0.0000000000
C          C       0.64571   0.34539   0.20487   0.0000000000
C          C       0.35366   0.63705  -0.37215   0.0000000000
C          C       0.68671   0.37039   0.32137   0.0000000000
C          C       0.31230   0.68276  -0.38740   0.0000000000
C          C       0.48645   0.95024  -0.22729   0.0000000000
C          C       0.52871   0.98159  -0.20951   0.0000000000
C          C       0.53975   0.02247  -0.11801   0.0000000000
C          C       0.51022   0.03431  -0.02574   0.0000000000
C          C       0.46763   0.00371  -0.03987   0.0000000000
C          C       0.45607   0.96065  -0.13576   0.0000000000
O          O       0.43530   0.01093   0.06305   0.0000000000
C          C       0.43199   0.04203  -0.14635   0.0000000000
O          O       0.56092   0.97499  -0.32822   0.0000000000
C          C       0.57012   0.94936  -0.09621   0.0000000000
C          C       0.52505   0.07847   0.07713   0.0000000000
C          C       0.47390   0.90680  -0.33218   0.0000000000
N          N       0.43597   0.88034  -0.42622   0.0000000000
N          N       0.56449   0.10515   0.05733   0.0000000000
C          C       0.41920   0.83659  -0.49147   0.0000000000
C          C       0.58552   0.14925   0.11514   0.0000000000
C          C       0.62645   0.17184  -0.00727   0.0000000000
C          C       0.64828   0.21493   0.01325   0.0000000000
C          C       0.63157   0.23745   0.18468   0.0000000000
C          C       0.58994   0.21409   0.31324   0.0000000000
C          C       0.56687   0.17056   0.27418   0.0000000000
C          C       0.37895   0.81356  -0.63753   0.0000000000
C          C       0.35911   0.77024  -0.65845   0.0000000000
C          C       0.37862   0.74879  -0.52061   0.0000000000
C          C       0.41990   0.77217  -0.39200   0.0000000000
C          C       0.43999   0.81549  -0.37887   0.0000000000
C          C       0.65500   0.28467   0.20862   0.0000000000
C          C       0.35481   0.70275  -0.47218   0.0000000000
C          C       0.63094   0.30343   0.13715   0.0000000000
C          C       0.31123   0.61796  -0.28076   0.0000000000
C          C       0.05040   0.55468   0.24972   0.0000000000
C          C       0.02225   0.56911   0.20263   0.0000000000
C          C       0.97787   0.54192   0.30127   0.0000000000
C          C       0.96368   0.50195   0.44572   0.0000000000
C          C       0.99197   0.48761   0.48839   0.0000000000
C          C       0.03598   0.51467   0.39153   0.0000000000
O          O       0.98039   0.44982   0.66384   0.0000000000
C          C       0.95630   0.41407   0.43401   0.0000000000
O          O       0.03374   0.60532  -0.00123   0.0000000000
C          C       0.04164   0.64030   0.22642   0.0000000000
C          C       0.91959   0.47440   0.55001   0.0000000000
C          C       0.09489   0.58100   0.15266   0.0000000000
N          N       0.11567   0.56379   0.03863   0.0000000000
N          N       0.89010   0.47853   0.39728   0.0000000000
C          C       0.15913   0.58436  -0.04999   0.0000000000
C          C       0.84634   0.44941   0.43159   0.0000000000
C          C       0.81790   0.45895   0.26767   0.0000000000
C          C       0.77561   0.42888   0.24535   0.0000000000
C          C       0.76006   0.38861   0.40079   0.0000000000
C          C       0.78862   0.38182   0.59915   0.0000000000
C          C       0.83104   0.41025   0.59958   0.0000000000
C          C       0.17522   0.56081  -0.20599   0.0000000000
C          C       0.21765   0.57869  -0.28044   0.0000000000
C          C       0.24520   0.62057  -0.19266   0.0000000000
C          C       0.22895   0.64414  -0.03123   0.0000000000
C          C       0.18642   0.62634   0.03692   0.0000000000
C          C       0.71464   0.35539   0.34992   0.0000000000
C          C       0.29015   0.64051  -0.29043   0.0000000000
C          C       0.69837   0.31096   0.30971   0.0000000000
C          C       0.37484   0.67923  -0.47462   0.0000000000
C          C       0.72388   2.29093   0.42820   0.0000000000
C          C       0.76988   2.24467   0.28965   0.0000000000
C          C       0.78639   2.29001   0.40613   0.0000000000
C          C       0.83183   2.31338   0.28043   0.0000000000
C          C       0.84093   2.27938   0.14509   0.0000000000
N          N       0.80511   2.23834   0.22705   0.0000000000
C          C       0.88221   1.28451   0.26949   0.0000000000
O          O       0.88435   1.25161   0.43783   0.0000000000
O          O       0.91411   1.31715   0.20639   0.0000000000
O          O       0.76335   1.30776   0.25607   0.0000000000
H          H       0.46944   0.40754  -0.19054   0.0000000000
H          H       0.51454   0.55712  -0.10852   0.0000000000
H          H       0.61433   0.57752  -0.37095   0.0000000000
H          H       0.60034   0.52330  -0.36731   0.0000000000
H          H       0.63463   0.55854  -0.01345   0.0000000000
H          H       0.36178   0.38646   0.00284   0.0000000000
H          H       0.35271   0.41726  -0.33384   0.0000000000
H          H       0.38491   0.44173   0.06891   0.0000000000
H          H       0.58296   0.47739   0.08341   0.0000000000
H          H       0.40419   0.49087  -0.43802   0.0000000000
H          H       0.51742   0.33943   0.27278   0.0000000000
H          H       0.56265   0.30929   0.35550   0.0000000000
H          H       0.66674   0.42270  -0.05486   0.0000000000
H          H       0.62198   0.45247  -0.13816   0.0000000000
H          H       0.47160   0.62862  -0.09129   0.0000000000
H          H       0.43379   0.66628  -0.13711   0.0000000000
H          H       0.32554   0.55472  -0.53866   0.0000000000
H          H       0.36312   0.51711  -0.48233   0.0000000000
H          H       0.69694   0.40239   0.39630   0.0000000000
H          H       0.29636   0.70039  -0.39082   0.0000000000
H          H       0.57245   0.04533  -0.12101   0.0000000000
H          H       0.42350   0.93726  -0.13860   0.0000000000
H          H       0.40153   0.02732  -0.28920   0.0000000000
H          H       0.45766   0.05831  -0.35309   0.0000000000
H          H       0.43298   0.06552   0.05169   0.0000000000
H          H       0.60032   0.96907   0.04626   0.0000000000
H          H       0.57306   0.92651  -0.27669   0.0000000000
H          H       0.54559   0.93152   0.11459   0.0000000000
H          H       0.50348   0.08891   0.14520   0.0000000000
H          H       0.49644   0.89693  -0.31979   0.0000000000
H          H       0.64123   0.15595  -0.13297   0.0000000000
H          H       0.67852   0.22969  -0.10549   0.0000000000
H          H       0.57525   0.22946   0.44858   0.0000000000
H          H       0.53524   0.15388   0.37686   0.0000000000
H          H       0.36263   0.82931  -0.72902   0.0000000000
H          H       0.32814   0.75347  -0.77696   0.0000000000
H          H       0.43603   0.75713  -0.27971   0.0000000000
H          H       0.47082   0.83185  -0.25944   0.0000000000
H          H       0.59943   0.28476   0.03333   0.0000000000
H          H       0.29490   0.58595  -0.18833   0.0000000000
H          H       0.95657   0.55340   0.25725   0.0000000000
H          H       0.05714   0.50306   0.43440   0.0000000000
H          H       0.94419   0.38588   0.61498   0.0000000000
H          H       0.97640   0.41116   0.21975   0.0000000000
H          H       0.92922   0.41484   0.30221   0.0000000000
H          H       0.04855   0.66685   0.04030   0.0000000000
H          H       0.06925   0.64960   0.40719   0.0000000000
H          H       0.01386   0.63345   0.39938   0.0000000000
H          H       0.91248   0.44769   0.72600   0.0000000000
H          H       0.10923   0.61453   0.16801   0.0000000000
H          H       0.82876   0.48895   0.13626   0.0000000000
H          H       0.75562   0.43685   0.08752   0.0000000000
H          H       0.77867   0.35523   0.76867   0.0000000000
H          H       0.85106   0.40118   0.73965   0.0000000000
H          H       0.15453   0.52863  -0.27841   0.0000000000
H          H       0.22849   0.56021  -0.42268   0.0000000000
H          H       0.24908   0.67628   0.04943   0.0000000000
H          H       0.17545   0.64525   0.16806   0.0000000000
H          H       0.40715   0.69381  -0.55672   0.0000000000
H          H       0.70794   2.25769   0.39177   0.0000000000
H          H       0.72685   2.29475   0.72573   0.0000000000
H          H       0.75099   2.23765   0.03618   0.0000000000
H          H       0.74774   2.22129   0.48850   0.0000000000
H          H       0.78644   2.29172   0.70554   0.0000000000
H          H       0.85377   2.33309   0.50144   0.0000000000
H          H       0.83687   2.33655   0.06177   0.0000000000
H          H       0.84327   2.28137  -0.15287   0.0000000000
H          H       0.80962   2.22582   0.47436   0.0000000000
H          H       0.91387   1.25934   0.50404   0.0000000000
