data_crystal
 
_cell_length_a    37.33110
_cell_length_b    37.30870
_cell_length_c    7.04000
_cell_angle_alpha 90.03900
_cell_angle_beta  89.99050
_cell_angle_gamma 119.96040
 
_space_group_name_Hall 'P 1'
_space_group_name_H-M_alt  'P 1'
 
loop_
_symmetry_equiv_pos_as_xyz
 'x,y,z' 
 
loop_
_atom_site_label
_atom_site_type_symbol
_atom_site_fract_x
_atom_site_fract_y
_atom_site_fract_z
C          C       0.47744   0.51241   0.01363 
C          C       0.46504   0.46986   0.00222 
C          C       0.49323   0.45685   0.04796 
C          C       0.53371   0.48492   0.10856 
C          C       0.54622   0.52756   0.11754 
C          C       0.51781   0.54046   0.07466 
O          O       0.58547   0.55804   0.18086 
C          C       0.62011   0.56421   0.06927 
O          O       0.42622   0.43966  -0.06682 
C          C       0.39072   0.43334   0.03788 
C          C       0.56203   0.46934   0.16157 
C          C       0.44940   0.52804  -0.04210 
N          N       0.45735   0.56488   0.00675 
N          N       0.55004   0.43011   0.15077 
C          C       0.43229   0.58348  -0.03070 
C          C       0.57608   0.41248   0.18114 
C          C       0.55799   0.37122   0.23907 
C          C       0.58166   0.35183   0.25395 
C          C       0.62387   0.37300   0.20454 
C          C       0.64194   0.41464   0.14686 
C          C       0.61842   0.43423   0.13658 
C          C       0.44835   0.62508   0.01715 
C          C       0.42504   0.64463  -0.00897 
C          C       0.38492   0.62301  -0.08668 
C          C       0.36892   0.58107  -0.13524 
C          C       0.39199   0.56135  -0.10558 
C          C       0.64817   0.35105   0.20031 
C          C       0.36015   0.64400  -0.12093 
C          C       0.69063   0.37235   0.23198 
C          C       0.31338   0.68214  -0.20467 
C          C       0.48427   0.95610  -0.11660 
C          C       0.52633   0.98739  -0.12834 
C          C       0.53815   0.02852  -0.08571 
C          C       0.50986   0.04048  -0.02339 
C          C       0.46775   0.01015  -0.00948 
C          C       0.45519   0.96695  -0.05500 
O          O       0.43712   0.01812   0.05926 
C          C       0.43070   0.04742  -0.04402 
O          O       0.55756   0.97995  -0.19379 
C          C       0.56516   0.95206  -0.08532 
C          C       0.52513   0.08418   0.02993 
C          C       0.47026   0.91260  -0.16998 
N          N       0.43247   0.88369  -0.13445 
N          N       0.56130   0.11272  -0.02648 
C          C       0.41440   0.83995  -0.16513 
C          C       0.58127   0.15643   0.00887 
C          C       0.62138   0.18082  -0.05938 
C          C       0.64253   0.22359  -0.03293 
C          C       0.62623   0.24315   0.07691 
C          C       0.58470   0.21854   0.13862 
C          C       0.56219   0.17590   0.10162 
C          C       0.37317   0.81476  -0.11233 
C          C       0.35443   0.77184  -0.12255 
C          C       0.37632   0.75273  -0.19034 
C          C       0.41757   0.77818  -0.24924 
C          C       0.43660   0.82135  -0.23528 
C          C       0.65158   0.28838   0.12923 
C          C       0.35645   0.70667  -0.18687 
C          C       0.62945   0.30967   0.14605 
C          C       0.31661   0.62103  -0.12042 
C          C       0.04543   0.53208  -0.08489 
C          C       0.01745   0.54720  -0.08106 
C          C       0.97358   0.51882  -0.03413 
C          C       0.95903   0.47726   0.01185 
C          C       0.98683   0.46195   0.00370 
C          C       0.03065   0.49039  -0.04099 
O          O       0.97640   0.42178   0.05982 
C          C       0.94647   0.38829  -0.05275 
O          O       0.02795   0.58725  -0.13903 
C          C       0.05816   0.62094  -0.02831 
C          C       0.91527   0.45044   0.06858 
C          C       0.08984   0.55901  -0.13126 
N          N       0.11553   0.54515  -0.11782 
N          N       0.88971   0.46445   0.08328 
C          C       0.15955   0.56981  -0.13975 
C          C       0.84659   0.43905   0.13016 
C          C       0.81831   0.45099   0.06985 
C          C       0.77565   0.42370   0.08854 
C          C       0.76059   0.38448   0.17391 
C          C       0.78926   0.37600   0.25502 
C          C       0.83157   0.40150   0.22806 
C          C       0.18186   0.55065  -0.19586 
C          C       0.22503   0.57325  -0.20783 
C          C       0.24685   0.61549  -0.15882 
C          C       0.22419   0.63444  -0.09976 
C          C       0.18108   0.61195  -0.09111 
C          C       0.71531   0.35452   0.19337 
C          C       0.29292   0.63967  -0.16428 
C          C       0.69598   0.31065   0.15599 
C          C       0.37966   0.68706  -0.15183 
O          O       0.71930   2.29278   0.08417 
C          C       0.72540   2.23082   0.18343 
C          C       0.74308   2.27796   0.18970 
C          C       0.78831   2.29612   0.12748 
C          C       0.79359   2.25972   0.06496 
N          N       0.75675   2.22098   0.11817 
C          C       0.83367   1.26152   0.12188 
O          O       0.83863   1.22740   0.08475 
O          O       0.86192   1.29267   0.19398 
H          H       0.48301   0.42419   0.03592 
H          H       0.52796   0.57312   0.08540 
H          H       0.63250   0.59380  -0.00946 
H          H       0.61231   0.53865  -0.03261 
H          H       0.64481   0.56638   0.16398 
H          H       0.37685   0.40291   0.11013 
H          H       0.36744   0.43302  -0.06082 
H          H       0.39792   0.45768   0.14479 
H          H       0.59300   0.49074   0.20923 
H          H       0.42208   0.50811  -0.12273 
H          H       0.52535   0.35399   0.27281 
H          H       0.56677   0.32009   0.30264 
H          H       0.67380   0.43167   0.10014 
H          H       0.63290   0.46561   0.08396 
H          H       0.47895   0.64230   0.07859 
H          H       0.43839   0.67638   0.03707 
H          H       0.33881   0.56335  -0.20056 
H          H       0.37790   0.52904  -0.14309 
H          H       0.70523   0.40441   0.27559 
H          H       0.29555   0.69638  -0.24752 
H          H       0.57059   0.05142  -0.09790 
H          H       0.42278   0.94401  -0.04306 
H          H       0.45471   0.06434  -0.15292 
H          H       0.43102   0.07066   0.05500 
H          H       0.39982   0.03106  -0.11251 
H          H       0.59506   0.96985  -0.00946 
H          H       0.56768   0.93004  -0.18268 
H          H       0.54024   0.93366   0.01808 
H          H       0.50602   0.09199   0.11426 
H          H       0.49201   0.90511  -0.23326 
H          H       0.63586   0.16674  -0.14003 
H          H       0.67125   0.24135  -0.10481 
H          H       0.56981   0.23144   0.22412 
H          H       0.53076   0.15863   0.15271 
H          H       0.35582   0.82858  -0.05672 
H          H       0.32318   0.75375  -0.06964 
H          H       0.43532   0.76494  -0.30585 
H          H       0.46851   0.83960  -0.27847 
H          H       0.59724   0.29436   0.10511 
H          H       0.30101   0.58882  -0.07925 
H          H       0.95281   0.53120  -0.03338 
H          H       0.05128   0.47786  -0.04090 
H          H       0.96163   0.37290  -0.12512 
H          H       0.93135   0.39822  -0.15937 
H          H       0.92192   0.36517   0.04079 
H          H       0.08193   0.64439  -0.12368 
H          H       0.07399   0.61127   0.07566 
H          H       0.04295   0.63584   0.04765 
H          H       0.90402   0.41812   0.09076 
H          H       0.10113   0.59061  -0.17417 
H          H       0.82918   0.48022  -0.00256 
H          H       0.75461   0.43285   0.03075 
H          H       0.77837   0.35094   0.34971 
H          H       0.85227   0.39262   0.29237 
H          H       0.16567   0.51810  -0.23179 
H          H       0.24116   0.55764  -0.25698 
H          H       0.23972   0.66642  -0.05384 
H          H       0.16477   0.62709  -0.03839 
H          H       0.41290   0.70551  -0.14556 
H          H       0.69740   2.21396   0.10029 
H          H       0.71485   2.21700   0.32240 
H          H       0.74440   2.28600   0.33092 
H          H       0.81035   2.31345   0.24111 
H          H       0.79805   2.32000   0.02073 
H          H       0.79418   2.25966  -0.08544 
H          H       0.76318   2.20557   0.22535 
H          H       0.86668   1.23204   0.12577 
C          C       0.47744   0.51241   0.51362 
C          C       0.46504   0.46986   0.50223 
C          C       0.49323   0.45685   0.54796 
C          C       0.53371   0.48492   0.60856 
C          C       0.54622   0.52756   0.61754 
C          C       0.51781   0.54046   0.57466 
O          O       0.58547   0.55804   0.68086 
C          C       0.62011   0.56421   0.56927 
O          O       0.42622   0.43966   0.43318 
C          C       0.39072   0.43334   0.53788 
C          C       0.56203   0.46934   0.66157 
C          C       0.44940   0.52804   0.45791 
N          N       0.45735   0.56488   0.50675 
N          N       0.55004   0.43011   0.65077 
C          C       0.43229   0.58348   0.46931 
C          C       0.57608   0.41248   0.68113 
C          C       0.55799   0.37122   0.73907 
C          C       0.58166   0.35183   0.75395 
C          C       0.62387   0.37300   0.70454 
C          C       0.64194   0.41464   0.64686 
C          C       0.61842   0.43423   0.63658 
C          C       0.44835   0.62508   0.51715 
C          C       0.42504   0.64463   0.49103 
C          C       0.38492   0.62301   0.41332 
C          C       0.36892   0.58107   0.36477 
C          C       0.39199   0.56135   0.39442 
C          C       0.64817   0.35105   0.70031 
C          C       0.36015   0.64400   0.37907 
C          C       0.69063   0.37235   0.73198 
C          C       0.31338   0.68214   0.29534 
C          C       0.48427   0.95610   0.38340 
C          C       0.52633   0.98739   0.37167 
C          C       0.53815   0.02852   0.41430 
C          C       0.50986   0.04048   0.47661 
C          C       0.46775   0.01015   0.49052 
C          C       0.45519   0.96695   0.44500 
O          O       0.43712   0.01812   0.55926 
C          C       0.43070   0.04742   0.45598 
O          O       0.55756   0.97995   0.30621 
C          C       0.56516   0.95206   0.41468 
C          C       0.52513   0.08418   0.52993 
C          C       0.47026   0.91260   0.33002 
N          N       0.43247   0.88369   0.36556 
N          N       0.56130   0.11272   0.47352 
C          C       0.41440   0.83995   0.33487 
C          C       0.58127   0.15643   0.50888 
C          C       0.62138   0.18082   0.44063 
C          C       0.64253   0.22359   0.46708 
C          C       0.62623   0.24315   0.57691 
C          C       0.58470   0.21854   0.63862 
C          C       0.56219   0.17590   0.60162 
C          C       0.37317   0.81476   0.38767 
C          C       0.35443   0.77184   0.37745 
C          C       0.37632   0.75273   0.30966 
C          C       0.41757   0.77818   0.25077 
C          C       0.43660   0.82135   0.26473 
C          C       0.65158   0.28838   0.62924 
C          C       0.35645   0.70667   0.31313 
C          C       0.62945   0.30967   0.64605 
C          C       0.31661   0.62103   0.37958 
C          C       0.04543   0.53208   0.41512 
C          C       0.01745   0.54720   0.41895 
C          C       0.97358   0.51882   0.46587 
C          C       0.95903   0.47726   0.51184 
C          C       0.98683   0.46195   0.50370 
C          C       0.03065   0.49039   0.45902 
O          O       0.97640   0.42178   0.55982 
C          C       0.94647   0.38829   0.44725 
O          O       0.02795   0.58725   0.36098 
C          C       0.05816   0.62094   0.47170 
C          C       0.91527   0.45044   0.56858 
C          C       0.08984   0.55901   0.36874 
N          N       0.11553   0.54515   0.38218 
N          N       0.88971   0.46445   0.58328 
C          C       0.15955   0.56981   0.36026 
C          C       0.84659   0.43905   0.63016 
C          C       0.81831   0.45099   0.56985 
C          C       0.77565   0.42370   0.58854 
C          C       0.76059   0.38448   0.67392 
C          C       0.78926   0.37600   0.75502 
C          C       0.83157   0.40150   0.72806 
C          C       0.18186   0.55065   0.30414 
C          C       0.22503   0.57325   0.29217 
C          C       0.24685   0.61549   0.34118 
C          C       0.22419   0.63444   0.40024 
C          C       0.18108   0.61195   0.40890 
C          C       0.71531   0.35452   0.69337 
C          C       0.29292   0.63967   0.33572 
C          C       0.69598   0.31065   0.65599 
C          C       0.37966   0.68706   0.34817 
O          O       0.71930   2.29278   0.58417 
C          C       0.72540   2.23082   0.68343 
C          C       0.74308   2.27796   0.68970 
C          C       0.78831   2.29612   0.62748 
C          C       0.79359   2.25972   0.56496 
N          N       0.75675   2.22098   0.61817 
C          C       0.83367   1.26152   0.62189 
O          O       0.83863   1.22740   0.58474 
O          O       0.86192   1.29267   0.69398 
H          H       0.48301   0.42419   0.53592 
H          H       0.52796   0.57312   0.58539 
H          H       0.63250   0.59380   0.49054 
H          H       0.61231   0.53865   0.46739 
H          H       0.64481   0.56638   0.66398 
H          H       0.37685   0.40291   0.61013 
H          H       0.36744   0.43302   0.43918 
H          H       0.39792   0.45768   0.64479 
H          H       0.59300   0.49074   0.70923 
H          H       0.42208   0.50811   0.37728 
H          H       0.52535   0.35399   0.77281 
H          H       0.56677   0.32009   0.80264 
H          H       0.67380   0.43167   0.60014 
H          H       0.63290   0.46561   0.58396 
H          H       0.47895   0.64230   0.57859 
H          H       0.43839   0.67638   0.53707 
H          H       0.33881   0.56335   0.29945 
H          H       0.37790   0.52904   0.35691 
H          H       0.70523   0.40441   0.77559 
H          H       0.29555   0.69638   0.25248 
H          H       0.57059   0.05142   0.40210 
H          H       0.42278   0.94401   0.45694 
H          H       0.45471   0.06434   0.34708 
H          H       0.43102   0.07066   0.55501 
H          H       0.39982   0.03106   0.38749 
H          H       0.59506   0.96985   0.49053 
H          H       0.56768   0.93004   0.31732 
H          H       0.54024   0.93366   0.51808 
H          H       0.50602   0.09199   0.61426 
H          H       0.49201   0.90511   0.26674 
H          H       0.63586   0.16674   0.35997 
H          H       0.67125   0.24135   0.39519 
H          H       0.56981   0.23144   0.72412 
H          H       0.53076   0.15863   0.65272 
H          H       0.35582   0.82858   0.44329 
H          H       0.32318   0.75375   0.43036 
H          H       0.43532   0.76494   0.19415 
H          H       0.46851   0.83960   0.22153 
H          H       0.59724   0.29436   0.60511 
H          H       0.30101   0.58882   0.42075 
H          H       0.95281   0.53120   0.46663 
H          H       0.05128   0.47786   0.45911 
H          H       0.96163   0.37290   0.37488 
H          H       0.93135   0.39822   0.34064 
H          H       0.92192   0.36517   0.54080 
H          H       0.08193   0.64439   0.37632 
H          H       0.07399   0.61127   0.57566 
H          H       0.04295   0.63584   0.54765 
H          H       0.90402   0.41812   0.59077 
H          H       0.10113   0.59061   0.32583 
H          H       0.82918   0.48022   0.49745 
H          H       0.75461   0.43285   0.53075 
H          H       0.77837   0.35094   0.84971 
H          H       0.85227   0.39262   0.79237 
H          H       0.16567   0.51810   0.26822 
H          H       0.24116   0.55764   0.24302 
H          H       0.23972   0.66642   0.44616 
H          H       0.16477   0.62709   0.46162 
H          H       0.41290   0.70551   0.35444 
H          H       0.69740   2.21396   0.60028 
H          H       0.71485   2.21700   0.82240 
H          H       0.74440   2.28600   0.83092 
H          H       0.81035   2.31345   0.74111 
H          H       0.79805   2.32000   0.52073 
H          H       0.79418   2.25966   0.41456 
H          H       0.76318   2.20557   0.72535 
H          H       0.86668   1.23204   0.62578 
