data_crystal
 
_cell_length_a    37.61990
_cell_length_b    37.60630
_cell_length_c    3.51000
_cell_angle_alpha 90.01450
_cell_angle_beta  89.94130
_cell_angle_gamma 120.04660
 
_symmetry_space_group_name_Hall 'P 1'
_symmetry_space_group_name_H-M  'P 1'
 
loop_
_symmetry_equiv_pos_as_xyz
 'x,y,z' 
 
loop_
_atom_site_label
_atom_site_type_symbol
_atom_site_fract_x
_atom_site_fract_y
_atom_site_fract_z
_atom_site_charge
C          C       0.47973   0.51374  -0.01998   0.0000000000
C          C       0.46374   0.47098  -0.00429   0.0000000000
C          C       0.48859   0.45519   0.11702   0.0000000000
C          C       0.53016   0.48163   0.20184   0.0000000000
C          C       0.54793   0.52423   0.12792   0.0000000000
C          C       0.52196   0.54003   0.04384   0.0000000000
O          O       0.59033   0.55247   0.17244   0.0000000000
C          C       0.62015   0.54421  -0.00554   0.0000000000
O          O       0.42568   0.44471  -0.17064   0.0000000000
C          C       0.39342   0.41809   0.08105   0.0000000000
C          C       0.55569   0.46581   0.36200   0.0000000000
C          C       0.45158   0.52997  -0.09661   0.0000000000
N          N       0.46232   0.56812  -0.02648   0.0000000000
N          N       0.54530   0.42719   0.34292   0.0000000000
C          C       0.43649   0.58640  -0.05886   0.0000000000
C          C       0.57238   0.41100   0.40789   0.0000000000
C          C       0.55545   0.36954   0.50490   0.0000000000
C          C       0.57979   0.35099   0.51239   0.0000000000
C          C       0.62160   0.37304   0.40663   0.0000000000
C          C       0.63864   0.41510   0.31897   0.0000000000
C          C       0.61458   0.43390   0.32452   0.0000000000
C          C       0.45218   0.62688   0.06530   0.0000000000
C          C       0.42811   0.64573   0.05707   0.0000000000
C          C       0.38750   0.62472  -0.08302   0.0000000000
C          C       0.37210   0.58416  -0.21407   0.0000000000
C          C       0.39602   0.56518  -0.20032   0.0000000000
C          C       0.64642   0.35182   0.36476   0.0000000000
C          C       0.36170   0.64504  -0.10426   0.0000000000
C          C       0.68925   0.37358   0.39405   0.0000000000
C          C       0.31332   0.68197  -0.20818   0.0000000000
C          C       0.47157   0.95497  -0.08398   0.0000000000
C          C       0.51121   0.98513  -0.20075   0.0000000000
C          C       0.52420   0.02698  -0.15237   0.0000000000
C          C       0.49785   0.04053  -0.01030   0.0000000000
C          C       0.45605   0.01078   0.05235   0.0000000000
C          C       0.44374   0.96697   0.03715   0.0000000000
O          O       0.42549   0.02005   0.15386   0.0000000000
C          C       0.42212   0.04990  -0.07102   0.0000000000
O          O       0.53494   0.97453  -0.43175   0.0000000000
C          C       0.56187   0.96426  -0.23959   0.0000000000
C          C       0.51438   0.08497   0.07320   0.0000000000
C          C       0.45975   0.91126  -0.07055   0.0000000000
N          N       0.42235   0.88281  -0.14418   0.0000000000
N          N       0.55290   0.11119   0.01400   0.0000000000
C          C       0.40766   0.83946  -0.13964   0.0000000000
C          C       0.57448   0.15495   0.07068   0.0000000000
C          C       0.61480   0.17681  -0.05619   0.0000000000
C          C       0.63750   0.21937  -0.02147   0.0000000000
C          C       0.62260   0.24216   0.16381   0.0000000000
C          C       0.58132   0.21949   0.29522   0.0000000000
C          C       0.55727   0.17673   0.24074   0.0000000000
C          C       0.36700   0.81296  -0.03411   0.0000000000
C          C       0.35092   0.77054  -0.03464   0.0000000000
C          C       0.37458   0.75314  -0.15956   0.0000000000
C          C       0.41562   0.78013  -0.26953   0.0000000000
C          C       0.43214   0.82286  -0.25581   0.0000000000
C          C       0.64887   0.28856   0.22395   0.0000000000
C          C       0.35604   0.70723  -0.16936   0.0000000000
C          C       0.62724   0.31004   0.27094   0.0000000000
C          C       0.31837   0.62125  -0.10170   0.0000000000
C          C       0.04586   0.52896  -0.13785   0.0000000000
C          C       0.01820   0.54319  -0.19552   0.0000000000
C          C       0.97382   0.51579  -0.11978   0.0000000000
C          C       0.95814   0.47425  -0.02806   0.0000000000
C          C       0.98569   0.45877  -0.02126   0.0000000000
C          C       0.03032   0.48759  -0.04734   0.0000000000
O          O       0.97363   0.41731   0.03985   0.0000000000
C          C       0.94176   0.38744  -0.19692   0.0000000000
O          O       0.03093   0.57994  -0.39132   0.0000000000
C          C       0.03649   0.61332  -0.15976   0.0000000000
C          C       0.91381   0.44753   0.06224   0.0000000000
C          C       0.09081   0.55756  -0.16225   0.0000000000
N          N       0.11647   0.54386  -0.16591   0.0000000000
N          N       0.88843   0.46161   0.07956   0.0000000000
C          C       0.16062   0.56853  -0.16532   0.0000000000
C          C       0.84524   0.43673   0.16645   0.0000000000
C          C       0.81776   0.44961   0.05106   0.0000000000
C          C       0.77515   0.42359   0.09583   0.0000000000
C          C       0.75906   0.38442   0.26603   0.0000000000
C          C       0.78740   0.37475   0.42132   0.0000000000
C          C       0.82947   0.39924   0.36029   0.0000000000
C          C       0.18375   0.55052  -0.27884   0.0000000000
C          C       0.22678   0.57314  -0.27793   0.0000000000
C          C       0.24779   0.61430  -0.15397   0.0000000000
C          C       0.22423   0.63176  -0.02837   0.0000000000
C          C       0.18136   0.60943  -0.03700   0.0000000000
C          C       0.71331   0.35574   0.30310   0.0000000000
C          C       0.29380   0.63931  -0.15646   0.0000000000
C          C       0.69345   0.31238   0.22504   0.0000000000
C          C       0.38002   0.68826  -0.12852   0.0000000000
O          O       0.71762   2.29707   0.06176   0.0000000000
C          C       0.72809   2.27197   0.29128   0.0000000000
C          C       0.75554   2.25720   0.09956   0.0000000000
C          C       0.79887   2.29178  -0.01287   0.0000000000
C          C       0.82762   2.27545   0.06982   0.0000000000
C          C       0.79982   2.23137   0.19292   0.0000000000
N          N       0.76199   2.22847   0.33112   0.0000000000
H          H       0.47553   0.42224   0.13830   0.0000000000
H          H       0.53517   0.57294   0.01700   0.0000000000
H          H       0.62893   0.56010  -0.27752   0.0000000000
H          H       0.61155   0.51058  -0.02746   0.0000000000
H          H       0.64929   0.55961   0.15624   0.0000000000
H          H       0.40248   0.39897   0.25207   0.0000000000
H          H       0.36586   0.39743  -0.09036   0.0000000000
H          H       0.38479   0.43647   0.26686   0.0000000000
H          H       0.58606   0.48963   0.45029   0.0000000000
H          H       0.42043   0.50818  -0.18617   0.0000000000
H          H       0.52305   0.35136   0.57063   0.0000000000
H          H       0.56539   0.31905   0.59604   0.0000000000
H          H       0.67012   0.43341   0.22568   0.0000000000
H          H       0.62878   0.46573   0.24000   0.0000000000
H          H       0.48304   0.64353   0.17969   0.0000000000
H          H       0.44119   0.67635   0.17285   0.0000000000
H          H       0.34189   0.56713  -0.34049   0.0000000000
H          H       0.38274   0.53438  -0.31076   0.0000000000
H          H       0.70450   0.40550   0.47682   0.0000000000
H          H       0.29496   0.69571  -0.28057   0.0000000000
H          H       0.55531   0.04910  -0.23630   0.0000000000
H          H       0.41305   0.94427   0.12614   0.0000000000
H          H       0.39201   0.03473  -0.21559   0.0000000000
H          H       0.44770   0.06547  -0.28026   0.0000000000
H          H       0.42279   0.07388   0.11808   0.0000000000
H          H       0.58116   0.98853  -0.03197   0.0000000000
H          H       0.58281   0.96239  -0.44945   0.0000000000
H          H       0.54452   0.93327  -0.11377   0.0000000000
H          H       0.49404   0.09524   0.18037   0.0000000000
H          H       0.48202   0.90327   0.03136   0.0000000000
H          H       0.62823   0.16070  -0.19666   0.0000000000
H          H       0.66662   0.23405  -0.14637   0.0000000000
H          H       0.56763   0.23408   0.45590   0.0000000000
H          H       0.52613   0.16097   0.34621   0.0000000000
H          H       0.34793   0.82538   0.05801   0.0000000000
H          H       0.31989   0.75151   0.06905   0.0000000000
H          H       0.43478   0.76849  -0.37684   0.0000000000
H          H       0.46339   0.84278  -0.34991   0.0000000000
H          H       0.59479   0.29443   0.21268   0.0000000000
H          H       0.30355   0.58863  -0.04849   0.0000000000
H          H       0.95348   0.52826  -0.14769   0.0000000000
H          H       0.05091   0.47570  -0.00172   0.0000000000
H          H       0.91706   0.36403  -0.01574   0.0000000000
H          H       0.95426   0.37141  -0.36584   0.0000000000
H          H       0.92806   0.40139  -0.38361   0.0000000000
H          H       0.04292   0.63972  -0.34545   0.0000000000
H          H       0.06378   0.62303   0.02512   0.0000000000
H          H       0.00832   0.60512   0.00841   0.0000000000
H          H       0.90240   0.41509   0.10495   0.0000000000
H          H       0.10192   0.59023  -0.17137   0.0000000000
H          H       0.82921   0.47892  -0.09104   0.0000000000
H          H       0.75474   0.43357  -0.01419   0.0000000000
H          H       0.77798   0.35058   0.62135   0.0000000000
H          H       0.84955   0.38971   0.48717   0.0000000000
H          H       0.16842   0.51895  -0.37520   0.0000000000
H          H       0.24332   0.55844  -0.38246   0.0000000000
H          H       0.23868   0.66258   0.08593   0.0000000000
H          H       0.16491   0.62407   0.06981   0.0000000000
H          H       0.41294   0.70726  -0.11600   0.0000000000
H          H       0.70050   2.24400   0.37815   0.0000000000
H          H       0.74382   2.28936   0.53085   0.0000000000
H          H       0.73645   2.23879  -0.13415   0.0000000000
H          H       0.80203   2.30034  -0.30736   0.0000000000
H          H       0.80842   2.32092   0.13755   0.0000000000
H          H       0.84996   2.29511   0.28564   0.0000000000
H          H       0.84703   2.27641  -0.16661   0.0000000000
H          H       0.81507   2.22234   0.40701   0.0000000000
H          H       0.79239   2.20956  -0.04285   0.0000000000
H          H       0.73752   2.19834   0.29822   0.0000000000
