data_crystal
 
_cell_length_a    37.71500
_cell_length_b    37.69100
_cell_length_c    3.55000
_cell_angle_alpha 90.01170
_cell_angle_beta  89.98440
_cell_angle_gamma 120.01000
 
_symmetry_space_group_name_Hall 'P 1'
_symmetry_space_group_name_H-M  'P 1'
 
loop_
_symmetry_equiv_pos_as_xyz
 'x,y,z' 
 
loop_
_atom_site_label
_atom_site_type_symbol
_atom_site_fract_x
_atom_site_fract_y
_atom_site_fract_z
_atom_site_charge
C          C       0.47877   0.52351   0.06837   0.0000000000
C          C       0.46643   0.48265  -0.02856   0.0000000000
C          C       0.49573   0.46971  -0.03724   0.0000000000
C          C       0.53673   0.49631   0.06721   0.0000000000
C          C       0.54894   0.53707   0.16493   0.0000000000
C          C       0.51979   0.55012   0.16961   0.0000000000
O          O       0.58969   0.56347   0.27769   0.0000000000
C          C       0.60986   0.60400   0.12387   0.0000000000
O          O       0.42568   0.45645  -0.14172   0.0000000000
C          C       0.40577   0.41557   0.00403   0.0000000000
C          C       0.56719   0.48204   0.07282   0.0000000000
C          C       0.44862   0.53811   0.07062   0.0000000000
N          N       0.46079   0.57713   0.07537   0.0000000000
N          N       0.55691   0.44455  -0.01450   0.0000000000
C          C       0.43519   0.59551   0.07413   0.0000000000
C          C       0.58279   0.42636  -0.01215   0.0000000000
C          C       0.56643   0.38628  -0.14640   0.0000000000
C          C       0.58957   0.36657  -0.14717   0.0000000000
C          C       0.62983   0.38604  -0.00230   0.0000000000
C          C       0.64615   0.42649   0.13358   0.0000000000
C          C       0.62322   0.44649   0.12647   0.0000000000
C          C       0.45228   0.63620  -0.04543   0.0000000000
C          C       0.42885   0.65555  -0.05668   0.0000000000
C          C       0.38764   0.63517   0.06360   0.0000000000
C          C       0.37103   0.59458   0.19718   0.0000000000
C          C       0.39431   0.57490   0.19928   0.0000000000
C          C       0.65394   0.36396   0.02209   0.0000000000
C          C       0.36222   0.65579   0.03647   0.0000000000
C          C       0.69677   0.38568   0.03485   0.0000000000
C          C       0.31483   0.69589  -0.07350   0.0000000000
C          C       0.49562   0.96753  -0.00167   0.0000000000
C          C       0.53675   0.99826  -0.07031   0.0000000000
C          C       0.54838   0.03955  -0.02318   0.0000000000
C          C       0.52052   0.05150   0.10202   0.0000000000
C          C       0.47988   0.02122   0.17701   0.0000000000
C          C       0.46799   0.97957   0.13289   0.0000000000
O          O       0.45232   0.03333   0.30764   0.0000000000
C          C       0.41318   0.01535   0.12760   0.0000000000
O          O       0.56664   0.98992  -0.21123   0.0000000000
C          C       0.57514   0.96290   0.00265   0.0000000000
C          C       0.53354   0.09559   0.14480   0.0000000000
C          C       0.48070   0.92348  -0.08060   0.0000000000
N          N       0.44603   0.89558   0.05894   0.0000000000
N          N       0.56966   0.12337   0.03278   0.0000000000
C          C       0.42661   0.85175   0.02561   0.0000000000
C          C       0.58790   0.16716   0.04487   0.0000000000
C          C       0.62614   0.19005  -0.12282   0.0000000000
C          C       0.64609   0.23264  -0.12065   0.0000000000
C          C       0.63110   0.25402   0.07695   0.0000000000
C          C       0.59134   0.23117   0.23306   0.0000000000
C          C       0.56963   0.18802   0.21332   0.0000000000
C          C       0.38793   0.82885   0.18599   0.0000000000
C          C       0.36763   0.78624   0.17821   0.0000000000
C          C       0.38295   0.76486  -0.01295   0.0000000000
C          C       0.42293   0.78763  -0.16425   0.0000000000
C          C       0.44486   0.83081  -0.14195   0.0000000000
C          C       0.65590   0.29991   0.08448   0.0000000000
C          C       0.35860   0.71897  -0.01557   0.0000000000
C          C       0.63428   0.32119   0.04187   0.0000000000
C          C       0.31983   0.63306  -0.01955   0.0000000000
C          C       0.04987   0.53201  -0.12193   0.0000000000
C          C       0.02349   0.54810  -0.16268   0.0000000000
C          C       0.98163   0.52370  -0.07827   0.0000000000
C          C       0.96520   0.48290   0.04240   0.0000000000
C          C       0.99154   0.46606   0.05899   0.0000000000
C          C       0.03347   0.49110  -0.01070   0.0000000000
O          O       0.97847   0.42572   0.17344   0.0000000000
C          C       0.94847   0.39345  -0.05530   0.0000000000
O          O       0.03794   0.58630  -0.33534   0.0000000000
C          C       0.03779   0.61735  -0.10772   0.0000000000
C          C       0.92094   0.45797   0.13748   0.0000000000
C          C       0.09466   0.55902  -0.17155   0.0000000000
N          N       0.12008   0.54511  -0.15375   0.0000000000
N          N       0.89580   0.47205   0.10278   0.0000000000
C          C       0.16390   0.57135  -0.14337   0.0000000000
C          C       0.85205   0.44582   0.12522   0.0000000000
C          C       0.82697   0.45991   0.27860   0.0000000000
C          C       0.78408   0.43401   0.28886   0.0000000000
C          C       0.76558   0.39425   0.12957   0.0000000000
C          C       0.79095   0.38306  -0.05101   0.0000000000
C          C       0.83337   0.40697  -0.04137   0.0000000000
C          C       0.18987   0.55815  -0.29217   0.0000000000
C          C       0.23271   0.58422  -0.28544   0.0000000000
C          C       0.25032   0.62337  -0.11436   0.0000000000
C          C       0.22397   0.63341   0.06577   0.0000000000
C          C       0.18158   0.60928   0.03991   0.0000000000
C          C       0.72007   0.36644   0.10039   0.0000000000
C          C       0.29571   0.65167  -0.07395   0.0000000000
C          C       0.69996   0.32223   0.11972   0.0000000000
C          C       0.38055   0.69846   0.05254   0.0000000000
O          O       0.71990   2.30237   0.29316   0.0000000000
C          C       0.72536   2.23992   0.12575   0.0000000000
N          N       0.75740   2.23018   0.22364   0.0000000000
C          C       0.79262   2.26773   0.37537   0.0000000000
C          C       0.78780   2.30387   0.23621   0.0000000000
C          C       0.74340   2.28650   0.09799   0.0000000000
C          C       0.74427   2.18960   0.31834   0.0000000000
O          O       0.76636   2.16960   0.21369   0.0000000000
C          C       0.77290   2.14384   0.47393   0.0000000000
C          C       0.78685   2.11314   0.31696   0.0000000000
C          C       0.81254   2.17772   0.66091   0.0000000000
C          C       0.73018   2.11366   0.66471   0.0000000000
O          O       0.70860   2.16818   0.41391   0.0000000000
O          O       1.29469   1.71543  -0.24855   0.0000000000
C          C       1.28759   1.77705  -0.08939   0.0000000000
C          C       1.27069   1.73080  -0.05436   0.0000000000
C          C       1.22605   1.71207  -0.18712   0.0000000000
C          C       1.21819   1.74711  -0.30570   0.0000000000
N          N       1.25494   1.78558  -0.19592   0.0000000000
C          C       1.26681   1.82477  -0.32908   0.0000000000
O          O       1.24274   1.84384  -0.26961   0.0000000000
C          C       1.23896   1.87075  -0.53870   0.0000000000
C          C       1.19820   1.83886  -0.72374   0.0000000000
C          C       1.28246   1.89929  -0.71691   0.0000000000
C          C       1.22792   1.90413  -0.40687   0.0000000000
O          O       1.30232   1.84624  -0.42756   0.0000000000
C          C       0.83669   2.27810   0.32196   0.0000000000
O          O       0.84782   2.25307   0.12475   0.0000000000
C          C       0.89062   2.26658   0.08162   0.0000000000
O          O       0.86302   2.30990   0.46825   0.0000000000
C          C       1.17609   1.73940  -0.17451   0.0000000000
O          O       1.15992   1.76282  -0.32186   0.0000000000
C          C       1.11911   1.75254  -0.21582   0.0000000000
O          O       1.15467   1.70987   0.02646   0.0000000000
H          H       0.48659   0.43900  -0.13163   0.0000000000
H          H       0.52898   0.58087   0.26211   0.0000000000
H          H       0.59019   0.61001  -0.06687   0.0000000000
H          H       0.63709   0.60864  -0.03615   0.0000000000
H          H       0.62070   0.62692   0.35284   0.0000000000
H          H       0.42510   0.40966   0.19986   0.0000000000
H          H       0.39620   0.39328  -0.22829   0.0000000000
H          H       0.37773   0.40987   0.15480   0.0000000000
H          H       0.59825   0.50367   0.15448   0.0000000000
H          H       0.41633   0.51590   0.05092   0.0000000000
H          H       0.53549   0.37028  -0.25590   0.0000000000
H          H       0.57573   0.33626  -0.26837   0.0000000000
H          H       0.67622   0.44256   0.26044   0.0000000000
H          H       0.63709   0.47704   0.24206   0.0000000000
H          H       0.48377   0.65268  -0.14072   0.0000000000
H          H       0.44304   0.68624  -0.17046   0.0000000000
H          H       0.34027   0.57807   0.30888   0.0000000000
H          H       0.38062   0.54405   0.30903   0.0000000000
H          H       0.71255   0.41841  -0.00920   0.0000000000
H          H       0.57971   0.06247  -0.08723   0.0000000000
H          H       0.43687   0.95653   0.20165   0.0000000000
H          H       0.40796  -0.00894  -0.07784   0.0000000000
H          H       0.41060   0.03981  -0.02158   0.0000000000
H          H       0.38857   0.00190   0.34132   0.0000000000
H          H       0.57555   0.93974  -0.18691   0.0000000000
H          H       0.55223   0.94625   0.22524   0.0000000000
H          H       0.60589   0.98081   0.13263   0.0000000000
H          H       0.51253   0.10425   0.26238   0.0000000000
H          H       0.49879   0.91492  -0.25315   0.0000000000
H          H       0.63987   0.17467  -0.26852   0.0000000000
H          H       0.67302   0.24963  -0.28449   0.0000000000
H          H       0.57759   0.24631   0.38193   0.0000000000
H          H       0.53977   0.17153   0.34315   0.0000000000
H          H       0.37421   0.84420   0.33240   0.0000000000
H          H       0.34036   0.76907   0.33564   0.0000000000
H          H       0.43689   0.77222  -0.30538   0.0000000000
H          H       0.47526   0.84727  -0.26151   0.0000000000
H          H       0.60132   0.30377   0.02656   0.0000000000
H          H       0.30525   0.60008  -0.02433   0.0000000000
H          H       0.96176   0.53644  -0.11717   0.0000000000
H          H       0.05331   0.47824   0.02374   0.0000000000
H          H       0.96262   0.37728  -0.19592   0.0000000000
H          H       0.93481   0.40437  -0.26914   0.0000000000
H          H       0.92327   0.37111   0.12542   0.0000000000
H          H       0.04299   0.64341  -0.28999   0.0000000000
H          H       0.06361   0.62914   0.09441   0.0000000000
H          H       0.00809   0.60622   0.03960   0.0000000000
H          H       0.90883   0.42662   0.22594   0.0000000000
H          H       0.10638   0.59157  -0.20668   0.0000000000
H          H       0.84060   0.49034   0.39878   0.0000000000
H          H       0.76563   0.44504   0.42236   0.0000000000
H          H       0.77692   0.35736  -0.22914   0.0000000000
H          H       0.85144   0.39650  -0.19124   0.0000000000
H          H       0.17695   0.52843  -0.42592   0.0000000000
H          H       0.25167   0.57393  -0.42064   0.0000000000
H          H       0.23698   0.65865   0.25213   0.0000000000
H          H       0.16274   0.61890   0.18818   0.0000000000
H          H       0.41277   0.71636   0.12017   0.0000000000
H          H       0.69918   2.22633   0.31640   0.0000000000
H          H       0.71260   2.22442  -0.13769   0.0000000000
H          H       0.78888   2.26524   0.67164   0.0000000000
H          H       0.80987   2.31997   0.00751   0.0000000000
H          H       0.79790   2.32815   0.44230   0.0000000000
H          H       0.74431   2.29292  -0.19067   0.0000000000
H          H       0.78773   2.10941   0.01838   0.0000000000
H          H       0.76727   2.08103   0.41397   0.0000000000
H          H       0.81806   2.12080   0.41018   0.0000000000
H          H       0.83740   2.19087   0.45198   0.0000000000
H          H       0.82750   2.16982   0.88108   0.0000000000
H          H       0.80842   2.20369   0.72965   0.0000000000
H          H       0.72834   2.08806   0.83070   0.0000000000
H          H       0.70766   2.09742   0.43738   0.0000000000
H          H       0.71558   2.12701   0.83464   0.0000000000
H          H       1.31404   1.79118  -0.27589   0.0000000000
H          H       1.29984   1.79276   0.17352   0.0000000000
H          H       1.27020   1.72482   0.23537   0.0000000000
H          H       1.20533   1.69368   0.03889   0.0000000000
H          H       1.21733   1.68888  -0.40203   0.0000000000
H          H       1.21772   1.74766  -0.60592   0.0000000000
H          H       1.19848   1.81069  -0.80194   0.0000000000
H          H       1.18557   1.84870  -0.94190   0.0000000000
H          H       1.17307   1.82846  -0.51775   0.0000000000
H          H       1.28724   1.92722  -0.85661   0.0000000000
H          H       1.29582   1.88520  -0.89108   0.0000000000
H          H       1.30471   1.91311  -0.48305   0.0000000000
H          H       1.19770   1.89458  -0.28272   0.0000000000
H          H       1.22487   1.91919  -0.66261   0.0000000000
H          H       1.25191   1.93075  -0.25762   0.0000000000
H          H       0.89797   2.26797  -0.21616   0.0000000000
H          H       0.89749   2.24376   0.20698   0.0000000000
H          H       0.91178   2.29737   0.19906   0.0000000000
H          H       1.10210   1.72369  -0.05351   0.0000000000
H          H       1.10073   1.74880  -0.46931   0.0000000000
H          H       1.12046   1.77825  -0.05288   0.0000000000
