data_crystal
 
_cell_length_a    18.55000
_cell_length_b    18.55000
_cell_length_c    3.70000
_cell_angle_alpha 90.00000
_cell_angle_beta  90.00000
_cell_angle_gamma 120.00000
 
_symmetry_space_group_name_Hall 'P 1'
_symmetry_space_group_name_H-M  'P 1'
 
loop_
_symmetry_equiv_pos_as_xyz
 'x,y,z' 
 
loop_
_atom_site_label
_atom_site_type_symbol
_atom_site_fract_x
_atom_site_fract_y
_atom_site_fract_z
_atom_site_charge
C          C       0.61301   0.24617   0.50000   0.0000000000
C          C       0.69925   0.27962   0.50000   0.0000000000
C          C       0.49177   0.27269   0.50000   0.0000000000
N          N       0.43854   0.19543   0.50000   0.0000000000
C          C       0.35198   0.15972   0.50000   0.0000000000
C          C       0.30635   0.07398   0.50000   0.0000000000
C          C       0.22104   0.03443   0.50000   0.0000000000
C          C       0.17941   0.08095   0.50000   0.0000000000
C          C       0.22816   0.16862   0.50000   0.0000000000
C          C       0.31300   0.20734   0.50000   0.0000000000
C          C       0.08726   0.03942   0.50000   0.0000000000
C          C       0.04674   0.08544   0.50000   0.0000000000
H          H       0.47117   0.31734   0.50000   0.0000000000
H          H       0.33737   0.03760   0.50000   0.0000000000
H          H       0.19147   0.96780   0.50000   0.0000000000
H          H       0.20478   0.21105   0.50000   0.0000000000
H          H       0.34591   0.27440   0.50000   0.0000000000
H          H       0.08199   0.15058   0.50000   0.0000000000
C          C       0.75383   0.36684   0.50000   0.0000000000
C          C       0.72038   0.41963   0.50000   0.0000000000
O          O       0.56486   0.15835   0.50000   0.0000000000
C          C       0.72731   0.21908   0.50000   0.0000000000
N          N       0.80457   0.24311   0.50000   0.0000000000
C          C       0.84028   0.19226   0.50000   0.0000000000
C          C       0.92602   0.23237   0.50000   0.0000000000
C          C       0.96557   0.18661   0.50000   0.0000000000
C          C       0.91905   0.09846   0.50000   0.0000000000
C          C       0.83138   0.05954   0.50000   0.0000000000
C          C       0.79266   0.10566   0.50000   0.0000000000
C          C       0.96058   0.04784   0.50000   0.0000000000
C          C       0.91456   0.96130   0.50000   0.0000000000
H          H       0.50283   0.12455   0.50000   0.0000000000
H          H       0.68266   0.15383   0.50000   0.0000000000
H          H       0.96240   0.29977   0.50000   0.0000000000
H          H       0.03220   0.22367   0.50000   0.0000000000
H          H       0.78895   0.99373   0.50000   0.0000000000
H          H       0.72560   0.07151   0.50000   0.0000000000
H          H       0.84942   0.93141   0.50000   0.0000000000
C          C       0.63316   0.38699   0.50000   0.0000000000
C          C       0.58037   0.30075   0.50000   0.0000000000
C          C       0.78092   0.50823   0.50000   0.0000000000
N          N       0.75689   0.56146   0.50000   0.0000000000
C          C       0.80774   0.64802   0.50000   0.0000000000
C          C       0.76763   0.69365   0.50000   0.0000000000
C          C       0.81339   0.77896   0.50000   0.0000000000
C          C       0.90154   0.82059   0.50000   0.0000000000
C          C       0.94046   0.77184   0.50000   0.0000000000
C          C       0.89434   0.68700   0.50000   0.0000000000
C          C       0.95216   0.91274   0.50000   0.0000000000
C          C       0.03870   0.95326   0.50000   0.0000000000
H          H       0.84617   0.52883   0.50000   0.0000000000
H          H       0.70023   0.66263   0.50000   0.0000000000
H          H       0.77633   0.80853   0.50000   0.0000000000
H          H       0.00627   0.79522   0.50000   0.0000000000
H          H       0.92849   0.65409   0.50000   0.0000000000
H          H       0.06859   0.91801   0.50000   0.0000000000
H          H       0.82421   1.39414   0.50000   0.0000000000
H          H       0.60586   1.43007   0.50000   0.0000000000
