data_crystal

_cell_length_a    32.20050
_cell_length_b    32.20050
_cell_length_c    7.65640
_cell_angle_alpha 90.00000
_cell_angle_beta  90.00000
_cell_angle_gamma 120.00000

_space_group_name_Hall 'P 1'
_space_group_name_H-M_alt  'P 1'

loop_
_symmetry_equiv_pos_as_xyz
'x,y,z'

loop_
_atom_site_label
_atom_site_type_symbol
_atom_site_fract_x
_atom_site_fract_y
_atom_site_fract_z
C          C       0.57889   0.66917   0.25000
C          C       0.65622   0.57306   0.25000
C          C       0.33083   0.90972   0.25000
C          C       0.42694   0.08316   0.25000
C          C       0.09027   0.42111   0.25000
C          C       0.91684   0.34378   0.25000
N          N       0.57012   0.70606   0.25000
N          N       0.62095   0.52656   0.25000
N          N       0.29394   0.86406   0.25000
N          N       0.47344   0.09439   0.25000
N          N       0.13594   0.42988   0.25000
N          N       0.90561   0.37905   0.25000
C          C       0.66653   0.70788   0.25000
C          C       0.65618   0.61527   0.25000
C          C       0.29212   0.95865   0.25000
C          C       0.38473   0.04090   0.25000
C          C       0.04135   0.33347   0.25000
C          C       0.95910   0.34382   0.25000
C          C       0.70787   0.70324   0.25000
C          C       0.61526   0.62102   0.25000
C          C       0.29676   0.00463   0.25000
C          C       0.37898   0.99423   0.25000
C          C       0.99537   0.29213   0.25000
C          C       0.00577   0.38474   0.25000
C          C       0.70207   0.65675   0.25000
C          C       0.62001   0.66717   0.25000
C          C       0.34325   0.04533   0.25000
C          C       0.33283   0.95284   0.25000
C          C       0.95467   0.29792   0.25000
C          C       0.04716   0.37999   0.25000
O          O       0.57382   0.58534   0.25000
O          O       0.41466   0.98848   0.25000
O          O       0.01152   0.42618   0.25000
C          C       0.32558   0.70500   0.25000
C          C       0.62897   0.28692   0.25000
C          C       0.29500   0.62059   0.25000
C          C       0.71308   0.34206   0.25000
C          C       0.37941   0.67441   0.25000
C          C       0.65794   0.37103   0.25000
N          N       0.28865   0.65916   0.25000
N          N       0.67513   0.29677   0.25000
N          N       0.34084   0.62948   0.25000
N          N       0.70323   0.37836   0.25000
N          N       0.37052   0.71135   0.25000
N          N       0.62164   0.32487   0.25000
C          C       0.31771   0.74451   0.25000
C          C       0.59013   0.23916   0.25000
C          C       0.25549   0.57320   0.25000
C          C       0.76084   0.35097   0.25000
C          C       0.42680   0.68229   0.25000
C          C       0.64903   0.40987   0.25000
C          C       0.43564   0.64337   0.25000
C          C       0.68712   0.45809   0.25000
C          C       0.35663   0.79227   0.25000
C          C       0.54191   0.22903   0.25000
C          C       0.20773   0.56436   0.25000
C          C       0.77097   0.31288   0.25000
C          C       0.48261   0.65098   0.25000
C          C       0.67825   0.49667   0.25000
C          C       0.34902   0.83163   0.25000
C          C       0.50333   0.18157   0.25000
C          C       0.16837   0.51739   0.25000
C          C       0.81843   0.32175   0.25000
C          C       0.52281   0.69786   0.25000
C          C       0.63087   0.48860   0.25000
C          C       0.30214   0.82495   0.25000
C          C       0.51140   0.14227   0.25000
C          C       0.17505   0.47719   0.25000
C          C       0.85773   0.36913   0.25000
C          C       0.51428   0.73687   0.25000
C          C       0.59272   0.44061   0.25000
C          C       0.26313   0.77742   0.25000
C          C       0.55939   0.15212   0.25000
C          C       0.22258   0.48572   0.25000
C          C       0.84788   0.40728   0.25000
C          C       0.46724   0.72921   0.25000
C          C       0.60164   0.40208   0.25000
C          C       0.27079   0.73803   0.25000
C          C       0.59792   0.19956   0.25000
C          C       0.26197   0.53276   0.25000
C          C       0.80044   0.39836   0.25000
H          H       0.40781   0.60875   0.25000
H          H       0.72202   0.46574   0.25000
H          H       0.39125   0.79905   0.25000
H          H       0.53426   0.25628   0.25000
H          H       0.20095   0.59219   0.25000
H          H       0.74372   0.27798   0.25000
H          H       0.48730   0.62179   0.25000
H          H       0.70679   0.53096   0.25000
H          H       0.37821   0.86551   0.25000
H          H       0.46904   0.17583   0.25000
H          H       0.13449   0.51270   0.25000
H          H       0.82417   0.29321   0.25000
H          H       0.54236   0.77137   0.25000
H          H       0.55787   0.43317   0.25000
H          H       0.22863   0.77100   0.25000
H          H       0.56683   0.12471   0.25000
H          H       0.22900   0.45763   0.25000
H          H       0.87529   0.44213   0.25000
H          H       0.46290   0.75859   0.25000
H          H       0.57280   0.36801   0.25000
H          H       0.24141   0.70431   0.25000
H          H       0.63199   0.20479   0.25000
H          H       0.29569   0.53710   0.25000
H          H       0.79521   0.42720   0.25000
H          H       0.76025   0.76880   0.13807
H          H       0.23120   0.99145   0.13807
H          H       0.00855   0.23975   0.13807
H          H       0.76025   0.76880   0.36194
H          H       0.23120   0.99145   0.36194
H          H       0.00855   0.23975   0.36194
H          H       0.73191   0.65309   0.25000
H          H       0.67065   0.74147   0.25000
C          C       0.75606   0.74671   0.25000
H          H       0.78498   0.73831   0.25000
H          H       0.34691   0.07882   0.25000
H          H       0.25853   0.92918   0.25000
C          C       0.25329   0.00936   0.25000
H          H       0.26169   0.04667   0.25000
H          H       0.92118   0.26809   0.25000
H          H       0.07082   0.32935   0.25000
C          C       0.99064   0.24394   0.25000
H          H       0.95333   0.21502   0.25000
H          H       0.69021   0.57739   0.25000
H          H       0.88718   0.30979   0.25000
H          H       0.42261   0.11282   0.25000
H          H       0.08767   0.45177   0.25000
H          H       0.36410   0.91233   0.25000
H          H       0.54823   0.63590   0.25000
C          C       0.57889   0.66917   0.75001
C          C       0.65622   0.57306   0.75001
C          C       0.33083   0.90972   0.75001
C          C       0.42694   0.08316   0.75001
C          C       0.09027   0.42111   0.75001
C          C       0.91684   0.34378   0.75001
N          N       0.57012   0.70606   0.75001
N          N       0.62095   0.52656   0.75001
N          N       0.29394   0.86406   0.75001
N          N       0.47344   0.09439   0.75001
N          N       0.90561   0.37905   0.75001
C          C       0.66653   0.70788   0.75001
C          C       0.65618   0.61527   0.75001
C          C       0.29212   0.95865   0.75001
C          C       0.38473   0.04090   0.75001
C          C       0.04135   0.33347   0.75001
C          C       0.95910   0.34382   0.75001
C          C       0.70787   0.70324   0.75001
C          C       0.61526   0.62102   0.75001
C          C       0.29676   0.00463   0.75001
C          C       0.37898   0.99423   0.75001
C          C       0.99537   0.29213   0.75001
C          C       0.00577   0.38474   0.75001
C          C       0.70207   0.65675   0.75001
C          C       0.62001   0.66717   0.75001
C          C       0.34325   0.04533   0.75001
C          C       0.33283   0.95284   0.75001
C          C       0.95467   0.29792   0.75001
C          C       0.04716   0.37999   0.75001
O          O       0.57382   0.58534   0.75001
O          O       0.41466   0.98848   0.75001
O          O       0.01152   0.42618   0.75001
C          C       0.32558   0.70500   0.75001
C          C       0.62897   0.28692   0.75001
C          C       0.29500   0.62059   0.75001
C          C       0.71308   0.34206   0.75001
C          C       0.37941   0.67441   0.75001
C          C       0.65794   0.37103   0.75001
N          N       0.28865   0.65916   0.75001
N          N       0.67513   0.29677   0.75001
N          N       0.34084   0.62948   0.75001
N          N       0.70323   0.37836   0.75001
N          N       0.37052   0.71135   0.75001
N          N       0.62164   0.32487   0.75001
C          C       0.31771   0.74451   0.75001
C          C       0.59013   0.23916   0.75001
C          C       0.25549   0.57320   0.75001
C          C       0.76084   0.35097   0.75001
C          C       0.42680   0.68229   0.75001
C          C       0.64903   0.40987   0.75001
C          C       0.43564   0.64337   0.75001
C          C       0.68712   0.45809   0.75001
C          C       0.35663   0.79227   0.75001
C          C       0.54191   0.22903   0.75001
C          C       0.20773   0.56436   0.75001
C          C       0.77097   0.31288   0.75001
C          C       0.48261   0.65098   0.75001
C          C       0.67825   0.49667   0.75001
C          C       0.34902   0.83163   0.75001
C          C       0.50333   0.18157   0.75001
C          C       0.16837   0.51739   0.75001
C          C       0.81843   0.32175   0.75001
C          C       0.52281   0.69786   0.75001
C          C       0.63087   0.48860   0.75001
C          C       0.30214   0.82495   0.75001
C          C       0.51140   0.14227   0.75001
C          C       0.17505   0.47719   0.75001
C          C       0.85773   0.36913   0.75001
C          C       0.51428   0.73687   0.75001
C          C       0.59272   0.44061   0.75001
C          C       0.26313   0.77742   0.75001
C          C       0.55939   0.15212   0.75001
C          C       0.22258   0.48572   0.75001
C          C       0.84788   0.40728   0.75001
C          C       0.46724   0.72921   0.75001
C          C       0.60164   0.40208   0.75001
C          C       0.27079   0.73803   0.75001
C          C       0.59792   0.19956   0.75001
C          C       0.26197   0.53276   0.75001
C          C       0.80044   0.39836   0.75001
H          H       0.40781   0.60875   0.75001
H          H       0.72202   0.46574   0.75001
H          H       0.39125   0.79905   0.75001
H          H       0.53426   0.25628   0.75001
H          H       0.20095   0.59219   0.75001
H          H       0.74372   0.27798   0.75001
H          H       0.48730   0.62179   0.75001
H          H       0.70679   0.53096   0.75001
H          H       0.37821   0.86551   0.75001
H          H       0.46904   0.17583   0.75001
H          H       0.13449   0.51270   0.75001
H          H       0.82417   0.29321   0.75001
H          H       0.54236   0.77137   0.75001
H          H       0.55787   0.43317   0.75001
H          H       0.22863   0.77100   0.75001
H          H       0.56683   0.12471   0.75001
H          H       0.22900   0.45763   0.75001
H          H       0.87529   0.44213   0.75001
H          H       0.46290   0.75859   0.75001
H          H       0.57280   0.36801   0.75001
H          H       0.24141   0.70431   0.75001
H          H       0.63199   0.20479   0.75001
H          H       0.29569   0.53710   0.75001
H          H       0.79521   0.42720   0.75001
H          H       0.76025   0.76880   0.63807
H          H       0.23120   0.99145   0.63807
H          H       0.00855   0.23975   0.63807
H          H       0.76025   0.76880   0.86194
H          H       0.23120   0.99145   0.86194
H          H       0.00855   0.23975   0.86194
H          H       0.73191   0.65309   0.75001
H          H       0.67065   0.74147   0.75001
C          C       0.75606   0.74671   0.75001
H          H       0.78498   0.73831   0.75001
H          H       0.34691   0.07882   0.75001
H          H       0.25853   0.92918   0.75001
C          C       0.25329   0.00936   0.75001
H          H       0.26169   0.04667   0.75001
H          H       0.92118   0.26809   0.75001
H          H       0.07082   0.32935   0.75001
C          C       0.99064   0.24394   0.75001
H          H       0.95333   0.21502   0.75001
H          H       0.69021   0.57739   0.75001
H          H       0.88718   0.30979   0.75001
H          H       0.42261   0.11282   0.75001
H          H       0.08767   0.45177   0.75001
H          H       0.36410   0.91233   0.75001
H          H       0.54823   0.63590   0.75001
N          N       0.13594   0.42988   0.75001
