data_crystal
 
_cell_length_a    30.58020
_cell_length_b    30.58020
_cell_length_c    4.09770
_cell_angle_alpha 90.00000
_cell_angle_beta  90.00000
_cell_angle_gamma 120.00000
 
_symmetry_space_group_name_Hall 'P 1'
_symmetry_space_group_name_H-M  'P 1'
 
loop_
_symmetry_equiv_pos_as_xyz
 'x,y,z' 
 
loop_
_atom_site_label
_atom_site_type_symbol
_atom_site_fract_x
_atom_site_fract_y
_atom_site_fract_z
_atom_site_charge
C          C       0.89564   0.42209   0.50000   0.0000000000
C          C       0.57791   0.47355   0.50000   0.0000000000
C          C       0.52645   0.10436   0.50000   0.0000000000
C          C       0.10436   0.57791   0.50000   0.0000000000
C          C       0.42209   0.52645   0.50000   0.0000000000
C          C       0.47355   0.89564   0.50000   0.0000000000
C          C       0.94692   0.46189   0.50000   0.0000000000
C          C       0.44812   0.96239   0.50000   0.0000000000
C          C       0.53811   0.48502   0.50000   0.0000000000
C          C       0.03761   0.48573   0.50000   0.0000000000
C          C       0.51498   0.05308   0.50000   0.0000000000
C          C       0.51427   0.55188   0.50000   0.0000000000
C          C       0.05308   0.53811   0.50000   0.0000000000
C          C       0.55188   0.03761   0.50000   0.0000000000
C          C       0.46189   0.51498   0.50000   0.0000000000
C          C       0.96239   0.51427   0.50000   0.0000000000
C          C       0.48502   0.94692   0.50000   0.0000000000
C          C       0.48573   0.44812   0.50000   0.0000000000
O          O       0.88505   0.37676   0.50000   0.0000000000
O          O       0.62324   0.50830   0.50000   0.0000000000
O          O       0.49171   0.11495   0.50000   0.0000000000
O          O       0.11495   0.62324   0.50000   0.0000000000
O          O       0.37676   0.49171   0.50000   0.0000000000
O          O       0.50830   0.88505   0.50000   0.0000000000
N          N       0.58535   0.19099   0.50000   0.0000000000
N          N       0.80902   0.39436   0.50000   0.0000000000
N          N       0.60564   0.41465   0.50000   0.0000000000
N          N       0.41465   0.80902   0.50000   0.0000000000
N          N       0.19099   0.60564   0.50000   0.0000000000
N          N       0.39436   0.58535   0.50000   0.0000000000
N          N       0.85590   0.42992   0.50000   0.0000000000
N          N       0.57008   0.42598   0.50000   0.0000000000
N          N       0.57402   0.14410   0.50000   0.0000000000
N          N       0.14410   0.57008   0.50000   0.0000000000
N          N       0.42992   0.57402   0.50000   0.0000000000
N          N       0.42598   0.85590   0.50000   0.0000000000
C          C       0.98564   0.44923   0.50000   0.0000000000
C          C       0.55077   0.53641   0.50000   0.0000000000
C          C       0.46359   0.01436   0.50000   0.0000000000
C          C       0.01436   0.55077   0.50000   0.0000000000
C          C       0.44923   0.46359   0.50000   0.0000000000
C          C       0.53641   0.98564   0.50000   0.0000000000
H          H       0.97598   0.41212   0.50000   0.0000000000
H          H       0.58788   0.56386   0.50000   0.0000000000
H          H       0.43614   0.02402   0.50000   0.0000000000
H          H       0.02402   0.58788   0.50000   0.0000000000
H          H       0.41212   0.43614   0.50000   0.0000000000
H          H       0.56386   0.97598   0.50000   0.0000000000
C          C       0.77141   0.40548   0.50000   0.0000000000
C          C       0.59452   0.36593   0.50000   0.0000000000
C          C       0.63407   0.22859   0.50000   0.0000000000
C          C       0.22859   0.59452   0.50000   0.0000000000
C          C       0.40548   0.63407   0.50000   0.0000000000
C          C       0.36593   0.77141   0.50000   0.0000000000
C          C       0.28049   0.63091   0.50000   0.0000000000
C          C       0.36909   0.64957   0.50000   0.0000000000
C          C       0.35043   0.71951   0.50000   0.0000000000
C          C       0.71951   0.36909   0.50000   0.0000000000
C          C       0.63091   0.35043   0.50000   0.0000000000
C          C       0.64957   0.28049   0.50000   0.0000000000
C          C       0.31660   0.61484   0.50000   0.0000000000
C          C       0.38516   0.70177   0.50000   0.0000000000
C          C       0.29823   0.68340   0.50000   0.0000000000
C          C       0.68340   0.38516   0.50000   0.0000000000
C          C       0.61484   0.29823   0.50000   0.0000000000
C          C       0.70177   0.31660   0.50000   0.0000000000
H          H       0.27247   0.69548   0.50000   0.0000000000
H          H       0.30452   0.57699   0.50000   0.0000000000
H          H       0.42301   0.72753   0.50000   0.0000000000
H          H       0.72753   0.30452   0.50000   0.0000000000
H          H       0.69548   0.42301   0.50000   0.0000000000
H          H       0.57699   0.27247   0.50000   0.0000000000
H          H       0.40017   0.35353   0.71594   0.0000000000
H          H       0.64648   0.04664   0.71594   0.0000000000
H          H       0.95336   0.59983   0.71594   0.0000000000
H          H       0.59983   0.64648   0.71594   0.0000000000
H          H       0.35353   0.95336   0.71594   0.0000000000
H          H       0.04664   0.40017   0.71594   0.0000000000
H          H       0.59983   0.64648   0.28406   0.0000000000
H          H       0.35353   0.95336   0.28406   0.0000000000
H          H       0.04664   0.40017   0.28406   0.0000000000
H          H       0.40017   0.35353   0.28406   0.0000000000
H          H       0.64648   0.04664   0.28406   0.0000000000
H          H       0.95336   0.59983   0.28406   0.0000000000
H          H       0.55848   0.19906   0.50000   0.0000000000
H          H       0.78153   0.44293   0.50000   0.0000000000
H          H       0.86280   0.46423   0.50000   0.0000000000
O          O       0.47047   0.39778   0.50000   0.0000000000
C          C       0.42108   0.35401   0.50000   0.0000000000
H          H       0.42477   0.32036   0.50000   0.0000000000
H          H       0.80094   0.35941   0.50000   0.0000000000
H          H       0.55707   0.33860   0.50000   0.0000000000
H          H       0.53577   0.39857   0.50000   0.0000000000
O          O       0.60222   0.07269   0.50000   0.0000000000
C          C       0.64599   0.06707   0.50000   0.0000000000
H          H       0.67964   0.10442   0.50000   0.0000000000
H          H       0.64059   0.44153   0.50000   0.0000000000
H          H       0.66141   0.21847   0.50000   0.0000000000
H          H       0.60143   0.13720   0.50000   0.0000000000
O          O       0.92731   0.52953   0.50000   0.0000000000
C          C       0.93293   0.57892   0.50000   0.0000000000
H          H       0.89559   0.57523   0.50000   0.0000000000
H          H       0.44153   0.80094   0.50000   0.0000000000
H          H       0.21847   0.55707   0.50000   0.0000000000
H          H       0.13720   0.53577   0.50000   0.0000000000
O          O       0.52953   0.60222   0.50000   0.0000000000
C          C       0.57892   0.64599   0.50000   0.0000000000
H          H       0.57523   0.67964   0.50000   0.0000000000
H          H       0.19906   0.64059   0.50000   0.0000000000
H          H       0.44293   0.66141   0.50000   0.0000000000
H          H       0.46423   0.60143   0.50000   0.0000000000
O          O       0.39778   0.92731   0.50000   0.0000000000
C          C       0.35401   0.93293   0.50000   0.0000000000
H          H       0.32036   0.89559   0.50000   0.0000000000
H          H       0.35941   0.55848   0.50000   0.0000000000
H          H       0.33860   0.78153   0.50000   0.0000000000
H          H       0.39857   0.86280   0.50000   0.0000000000
O          O       0.07269   0.47047   0.50000   0.0000000000
C          C       0.06707   0.42108   0.50000   0.0000000000
H          H       0.10442   0.42477   0.50000   0.0000000000
