data_crystal
 
_cell_length_a    20.92390
_cell_length_b    20.92390
_cell_length_c    7.83920
_cell_angle_alpha 90.00000
_cell_angle_beta  90.00000
_cell_angle_gamma 120.00000
 
_space_group_name_Hall 'P 1'
_space_group_name_H-M_alt  'P 1'
 
loop_
_symmetry_equiv_pos_as_xyz
 'x,y,z' 
 
loop_
_atom_site_label
_atom_site_type_symbol
_atom_site_fract_x
_atom_site_fract_y
_atom_site_fract_z
C          C       0.37183   0.62668   0.42649 
C          C       0.37332   0.74515   0.42649 
C          C       0.25485   0.62817   0.42649 
C          C       0.44030   0.65566   0.01035 
C          C       0.34434   0.78464   0.01035 
C          C       0.21536   0.55970   0.01035 
C          C       0.47739   0.61641   0.02020 
C          C       0.38359   0.86098   0.02020 
C          C       0.13902   0.52261   0.02020 
C          C       0.44703   0.54521   0.44928 
C          C       0.45479   0.90182   0.44928 
C          C       0.09818   0.55297   0.44928 
C          C       0.37933   0.51706   0.36253 
C          C       0.48294   0.86227   0.36253 
C          C       0.13773   0.62067   0.36253 
C          C       0.34261   0.55670   0.35087 
C          C       0.44330   0.78591   0.35087 
C          C       0.21409   0.65739   0.35087 
N          N       0.47799   0.49950   0.45547 
N          N       0.50050   0.97849   0.45547 
N          N       0.02151   0.52201   0.45547 
C          C       0.63324   0.37813   0.05781 
C          C       0.62187   0.25511   0.05781 
C          C       0.74489   0.36676   0.05781 
C          C       0.56491   0.35436   0.47639 
C          C       0.64564   0.21055   0.47639 
C          C       0.78945   0.43509   0.47639 
C          C       0.53258   0.39806   0.47444 
C          C       0.60194   0.13452   0.47444 
C          C       0.86548   0.46742   0.47444 
C          C       0.56711   0.46782   0.05333 
C          C       0.53218   0.09929   0.05333 
C          C       0.90071   0.43289   0.05333 
C          C       0.63490   0.49130   0.13565 
C          C       0.50870   0.14360   0.13565 
C          C       0.85640   0.36510   0.13565 
C          C       0.66744   0.44752   0.13780 
C          C       0.55248   0.21992   0.13780 
C          C       0.78008   0.33256   0.13780 
C          C       0.53452   0.51509   0.04983 
C          C       0.48491   0.01943   0.04983 
C          C       0.98057   0.46548   0.04983 
H          H       0.46453   0.70984   0.06903 
H          H       0.29016   0.75469   0.06903 
H          H       0.24531   0.53547   0.06903 
H          H       0.52958   0.64108   0.08908 
H          H       0.35892   0.88850   0.08908 
H          H       0.11150   0.47042   0.08908 
H          H       0.35684   0.46312   0.30216 
H          H       0.53688   0.89372   0.30216 
H          H       0.10628   0.64316   0.30216 
H          H       0.29058   0.53325   0.28245 
H          H       0.46675   0.75733   0.28245 
H          H       0.24267   0.70942   0.28245 
H          H       0.53735   0.30091   0.41390 
H          H       0.69909   0.23644   0.41390 
H          H       0.76356   0.46265   0.41390 
H          H       0.48058   0.38012   0.40803 
H          H       0.61988   0.10046   0.40803 
H          H       0.89954   0.51942   0.40803 
H          H       0.66190   0.54424   0.20197 
H          H       0.45576   0.11766   0.20197 
H          H       0.88234   0.33810   0.20197 
H          H       0.71980   0.46693   0.20278 
H          H       0.53307   0.25287   0.20278 
H          H       0.74713   0.28020   0.20278 
H          H       0.56151   0.56430   0.13256 
H          H       0.43570   0.99721   0.13256 
H          H       0.00279   0.43849   0.13256 
N          N       0.66667   0.33333   0.05801 
N          N       0.33333   0.66667   0.41995 
C          C       0.37183   0.62668   0.92649 
C          C       0.37332   0.74515   0.92649 
C          C       0.25485   0.62817   0.92649 
C          C       0.44030   0.65566   0.51035 
C          C       0.34434   0.78464   0.51035 
C          C       0.21536   0.55970   0.51035 
C          C       0.47739   0.61641   0.52019 
C          C       0.38359   0.86098   0.52019 
C          C       0.13902   0.52261   0.52019 
C          C       0.44703   0.54521   0.94928 
C          C       0.45479   0.90182   0.94928 
C          C       0.09818   0.55297   0.94928 
C          C       0.37933   0.51706   0.86254 
C          C       0.48294   0.86227   0.86254 
C          C       0.13773   0.62067   0.86254 
C          C       0.34261   0.55670   0.85087 
C          C       0.44330   0.78591   0.85087 
C          C       0.21409   0.65739   0.85087 
N          N       0.47799   0.49950   0.95547 
N          N       0.50050   0.97849   0.95547 
N          N       0.02151   0.52201   0.95547 
C          C       0.63324   0.37813   0.55781 
C          C       0.62187   0.25511   0.55781 
C          C       0.74489   0.36676   0.55781 
C          C       0.56491   0.35436   0.97639 
C          C       0.64564   0.21055   0.97639 
C          C       0.78945   0.43509   0.97639 
C          C       0.53258   0.39806   0.97444 
C          C       0.60194   0.13452   0.97444 
C          C       0.86548   0.46742   0.97444 
C          C       0.56711   0.46782   0.55333 
C          C       0.53218   0.09929   0.55333 
C          C       0.90071   0.43289   0.55333 
C          C       0.63490   0.49130   0.63565 
C          C       0.50870   0.14360   0.63565 
C          C       0.85640   0.36510   0.63565 
C          C       0.66744   0.44752   0.63780 
C          C       0.55248   0.21992   0.63780 
C          C       0.78008   0.33256   0.63780 
C          C       0.53452   0.51509   0.54984 
C          C       0.48491   0.01943   0.54984 
C          C       0.98057   0.46548   0.54984 
H          H       0.46453   0.70984   0.56903 
H          H       0.29016   0.75469   0.56903 
H          H       0.24531   0.53547   0.56903 
H          H       0.52958   0.64108   0.58908 
H          H       0.35892   0.88850   0.58908 
H          H       0.11150   0.47042   0.58908 
H          H       0.35684   0.46312   0.80216 
H          H       0.53688   0.89372   0.80216 
H          H       0.10628   0.64316   0.80216 
H          H       0.29058   0.53325   0.78245 
H          H       0.46675   0.75733   0.78245 
H          H       0.24267   0.70942   0.78245 
H          H       0.53735   0.30091   0.91390 
H          H       0.69909   0.23644   0.91390 
H          H       0.76356   0.46265   0.91390 
H          H       0.48058   0.38012   0.90803 
H          H       0.61988   0.10046   0.90803 
H          H       0.89954   0.51942   0.90803 
H          H       0.66190   0.54424   0.70198 
H          H       0.45576   0.11766   0.70198 
H          H       0.88234   0.33810   0.70198 
H          H       0.71980   0.46693   0.70278 
H          H       0.53307   0.25287   0.70278 
H          H       0.74713   0.28020   0.70278 
H          H       0.56151   0.56430   0.63256 
H          H       0.43570   0.99721   0.63256 
H          H       0.00279   0.43849   0.63256 
N          N       0.66667   0.33333   0.55801 
N          N       0.33333   0.66667   0.91995 
