data_crystal

_cell_length_a    23.45860
_cell_length_b    23.45860
_cell_length_c    7.79820
_cell_angle_alpha 90.00000
_cell_angle_beta  90.00000
_cell_angle_gamma 120.00000

_space_group_name_Hall 'P 1'
_space_group_name_H-M_alt  'P 1'

loop_
_symmetry_equiv_pos_as_xyz
'x,y,z' 

loop_
_atom_site_label
_atom_site_type_symbol
_atom_site_fract_x
_atom_site_fract_y
_atom_site_fract_z
C          C       0.07127   0.03766   0.05848 
C          C       0.96234   0.03361   0.05848 
C          C       0.96639   0.92873   0.05848 
C          C       0.10543   0.10075   0.13189 
C          C       0.89925   0.00468   0.13189 
C          C       0.99532   0.89457   0.13189 
C          C       0.17398   0.13773   0.12444 
C          C       0.86227   0.03625   0.12444 
C          C       0.96375   0.82602   0.12444 
C          C       0.20962   0.11202   0.04527 
C          C       0.88798   0.09760   0.04527 
C          C       0.90240   0.79038   0.04527 
C          C       0.17607   0.04885   0.47295 
C          C       0.95115   0.12722   0.47295 
C          C       0.87278   0.82393   0.47295 
C          C       0.10757   0.01227   0.47891 
C          C       0.98773   0.09530   0.47891 
C          C       0.90470   0.89243   0.47891 
N          N       0.27967   0.15141   0.03705 
N          N       0.84859   0.12826   0.03705 
N          N       0.87174   0.72033   0.03705 
C          C       0.31668   0.12950   0.47792 
C          C       0.87050   0.18718   0.47792 
C          C       0.81282   0.68332   0.47792 
C          C       0.38807   0.17192   0.46881 
C          C       0.82808   0.21615   0.46881 
C          C       0.78385   0.61193   0.46881 
C          C       0.42683   0.14459   0.42284 
C          C       0.85541   0.28224   0.42284 
C          C       0.71776   0.57317   0.42284 
C          C       0.49518   0.18421   0.41486 
C          C       0.81579   0.31097   0.41486 
C          C       0.68903   0.50482   0.41486 
C          C       0.52543   0.25173   0.45162 
C          C       0.74827   0.27370   0.45162 
C          C       0.72630   0.47457   0.45162 
C          C       0.48610   0.27888   0.49647 
C          C       0.72112   0.20722   0.49647 
C          C       0.79278   0.51390   0.49647 
C          C       0.41787   0.23924   0.00538 
C          C       0.76076   0.17863   0.00538 
C          C       0.82137   0.58213   0.00538 
C          C       0.59771   0.29349   0.44653 
C          C       0.70651   0.30422   0.44653 
C          C       0.69578   0.40229   0.44653 
C          C       0.73497   0.37279   0.44668 
C          C       0.62721   0.36218   0.44668 
C          C       0.63782   0.26503   0.44668 
H          H       0.07713   0.12225   0.19847 
H          H       0.87775   0.95488   0.19847 
H          H       0.04512   0.92287   0.19847 
H          H       0.20103   0.18911   0.18310 
H          H       0.81089   0.01192   0.18310 
H          H       0.98808   0.79897   0.18310 
H          H       0.20484   0.02731   0.40910 
H          H       0.97269   0.17753   0.40910 
H          H       0.82247   0.79516   0.40910 
H          H       0.08101   0.96122   0.41829 
H          H       0.03878   0.11979   0.41829 
H          H       0.88021   0.91899   0.41829 
H          H       0.29363   0.07638   0.43200 
H          H       0.92362   0.21725   0.43200 
H          H       0.78275   0.70637   0.43200 
H          H       0.40266   0.08988   0.39177 
H          H       0.91012   0.31278   0.39177 
H          H       0.68722   0.59734   0.39177 
H          H       0.52682   0.16178   0.37832 
H          H       0.83822   0.36504   0.37832 
H          H       0.63496   0.47318   0.37832 
H          H       0.50990   0.33369   0.02590 
H          H       0.66631   0.17621   0.02590 
H          H       0.82379   0.49010   0.02590 
H          H       0.38632   0.26172   0.04251 
H          H       0.73828   0.12460   0.04251 
H          H       0.87540   0.61368   0.04251 
H          H       0.79082   0.40546   0.44692 
H          H       0.59454   0.38536   0.44692 
H          H       0.61464   0.20918   0.44692 
N          N       0.00000   0.00000   0.06193 
C          C       0.07127   0.03766   0.55848 
C          C       0.96234   0.03361   0.55848 
C          C       0.96639   0.92873   0.55848 
C          C       0.10543   0.10075   0.63189 
C          C       0.89925   0.00468   0.63189 
C          C       0.99532   0.89457   0.63189 
C          C       0.17398   0.13773   0.62444 
C          C       0.86227   0.03625   0.62444 
C          C       0.96375   0.82602   0.62444 
C          C       0.20962   0.11202   0.54527 
C          C       0.88798   0.09760   0.54527 
C          C       0.90240   0.79038   0.54527 
C          C       0.17607   0.04885   0.97295 
C          C       0.95115   0.12722   0.97295 
C          C       0.87278   0.82393   0.97295 
C          C       0.10757   0.01227   0.97891 
C          C       0.98773   0.09530   0.97891 
C          C       0.90470   0.89243   0.97891 
N          N       0.27967   0.15141   0.53705 
N          N       0.84859   0.12826   0.53705 
N          N       0.87174   0.72033   0.53705 
C          C       0.31668   0.12950   0.97792 
C          C       0.87050   0.18718   0.97792 
C          C       0.81282   0.68332   0.97792 
C          C       0.38807   0.17192   0.96881 
C          C       0.82808   0.21615   0.96881 
C          C       0.78385   0.61193   0.96881 
C          C       0.42683   0.14459   0.92284 
C          C       0.85541   0.28224   0.92284 
C          C       0.71776   0.57317   0.92284 
C          C       0.49518   0.18421   0.91487 
C          C       0.81579   0.31097   0.91487 
C          C       0.68903   0.50482   0.91487 
C          C       0.52543   0.25173   0.95162 
C          C       0.74827   0.27370   0.95162 
C          C       0.72630   0.47457   0.95162 
C          C       0.48610   0.27888   0.99647 
C          C       0.72112   0.20722   0.99647 
C          C       0.79278   0.51390   0.99647 
C          C       0.41787   0.23924   0.50538 
C          C       0.76076   0.17863   0.50538 
C          C       0.82137   0.58213   0.50538 
C          C       0.59771   0.29349   0.94653 
C          C       0.70651   0.30422   0.94653 
C          C       0.69578   0.40229   0.94653 
C          C       0.73497   0.37279   0.94668 
C          C       0.62721   0.36218   0.94668 
C          C       0.63782   0.26503   0.94668 
H          H       0.07713   0.12225   0.69847 
H          H       0.87775   0.95488   0.69847 
H          H       0.04512   0.92287   0.69847 
H          H       0.20103   0.18911   0.68310 
H          H       0.81089   0.01192   0.68310 
H          H       0.98808   0.79897   0.68310 
H          H       0.20484   0.02731   0.90909 
H          H       0.97269   0.17753   0.90909 
H          H       0.82247   0.79516   0.90909 
H          H       0.08101   0.96122   0.91829 
H          H       0.03878   0.11979   0.91829 
H          H       0.88021   0.91899   0.91829 
H          H       0.29363   0.07638   0.93200 
H          H       0.92362   0.21725   0.93200 
H          H       0.78275   0.70637   0.93200 
H          H       0.40266   0.08988   0.89178 
H          H       0.91012   0.31278   0.89178 
H          H       0.68722   0.59734   0.89178 
H          H       0.52682   0.16178   0.87832 
H          H       0.83822   0.36504   0.87832 
H          H       0.63496   0.47318   0.87832 
H          H       0.50990   0.33369   0.52590 
H          H       0.66631   0.17621   0.52590 
H          H       0.82379   0.49010   0.52590 
H          H       0.38632   0.26172   0.54251 
H          H       0.73828   0.12460   0.54251 
H          H       0.87540   0.61368   0.54251 
H          H       0.79082   0.40546   0.94692 
H          H       0.59454   0.38536   0.94692 
H          H       0.61464   0.20918   0.94692 
N          N       0.00000   0.00000   0.56193 
