data_crystal

_cell_length_a    19.74130
_cell_length_b    25.09640
_cell_length_c    12.25040
_cell_angle_alpha 90.00000
_cell_angle_beta  90.00000
_cell_angle_gamma 90.00000

_space_group_name_Hall 'P 1'
_space_group_name_H-M_alt  'P 1'

loop_
_symmetry_equiv_pos_as_xyz
'x,y,z' 

loop_
_atom_site_label
_atom_site_type_symbol
_atom_site_fract_x
_atom_site_fract_y
_atom_site_fract_z
N          N       0.56429   0.56429   0.45986 
N          N       0.43571   0.43571   0.45986 
N          N       0.81429   0.68571   0.70986 
N          N       0.68571   0.81429   0.70986 
N          N       0.06429   0.56429   0.95986 
N          N       0.93571   0.43571   0.95986 
N          N       0.31429   0.68571   0.20986 
N          N       0.18571   0.81429   0.20986 
N          N       0.56429   0.06429   0.95986 
N          N       0.43571   0.93571   0.95986 
N          N       0.81429   0.18571   0.20986 
N          N       0.68571   0.31429   0.20986 
N          N       0.06429   0.06429   0.45986 
N          N       0.93571   0.93571   0.45986 
N          N       0.31429   0.18571   0.70986 
N          N       0.18571   0.31429   0.70986 
N          N       0.43574   0.56434   0.53210 
N          N       0.56426   0.43566   0.53210 
N          N       0.68574   0.68566   0.78210 
N          N       0.81426   0.81434   0.78210 
N          N       0.93574   0.56434   0.03210 
N          N       0.06426   0.43566   0.03210 
N          N       0.18574   0.68566   0.28210 
N          N       0.31426   0.81434   0.28210 
N          N       0.43574   0.06434   0.03210 
N          N       0.56426   0.93566   0.03210 
N          N       0.68574   0.18566   0.28210 
N          N       0.81426   0.31434   0.28210 
N          N       0.93574   0.06434   0.53210 
N          N       0.06426   0.93566   0.53210 
N          N       0.18574   0.18566   0.78210 
N          N       0.31426   0.31434   0.78210 
C          C       0.53660   0.46340   0.71115 
C          C       0.46340   0.53660   0.71115 
C          C       0.78660   0.78660   0.96115 
C          C       0.71340   0.71340   0.96115 
C          C       0.03660   0.46340   0.21115 
C          C       0.96340   0.53660   0.21115 
C          C       0.28660   0.78660   0.46115 
C          C       0.21340   0.71340   0.46115 
C          C       0.53660   0.96340   0.21115 
C          C       0.46340   0.03660   0.21115 
C          C       0.78660   0.28660   0.46115 
C          C       0.71340   0.21340   0.46115 
C          C       0.03660   0.96340   0.71115 
C          C       0.96340   0.03660   0.71115 
C          C       0.28660   0.28660   0.96115 
C          C       0.21340   0.21340   0.96115 
C          C       0.53660   0.53660   0.27776 
C          C       0.46340   0.46340   0.27776 
C          C       0.78660   0.71340   0.52776 
C          C       0.71340   0.78660   0.52776 
C          C       0.03660   0.53660   0.77776 
C          C       0.96340   0.46340   0.77776 
C          C       0.28660   0.71340   0.02776 
C          C       0.21340   0.78660   0.02776 
C          C       0.53660   0.03660   0.77776 
C          C       0.46340   0.96340   0.77776 
C          C       0.78660   0.21340   0.02776 
C          C       0.71340   0.28660   0.02776 
C          C       0.03660   0.03660   0.27776 
C          C       0.96340   0.96340   0.27776 
C          C       0.28660   0.21340   0.52776 
C          C       0.21340   0.28660   0.52776 
C          C       0.53660   0.46340   0.82375 
C          C       0.46340   0.53660   0.82375 
C          C       0.78660   0.78660   0.07375 
C          C       0.71340   0.71340   0.07375 
C          C       0.03660   0.46340   0.32375 
C          C       0.96340   0.53660   0.32375 
C          C       0.28660   0.78660   0.57375 
C          C       0.21340   0.71340   0.57375 
C          C       0.53660   0.96340   0.32375 
C          C       0.46340   0.03660   0.32375 
C          C       0.78660   0.28660   0.57375 
C          C       0.71340   0.21340   0.57375 
C          C       0.03660   0.96340   0.82375 
C          C       0.96340   0.03660   0.82375 
C          C       0.28660   0.28660   0.07375 
C          C       0.21340   0.21340   0.07375 
C          C       0.53660   0.53660   0.16516 
C          C       0.46340   0.46340   0.16516 
C          C       0.78660   0.71340   0.41516 
C          C       0.71340   0.78660   0.41516 
C          C       0.03660   0.53660   0.66516 
C          C       0.96340   0.46340   0.66516 
C          C       0.28660   0.71340   0.91516 
C          C       0.21340   0.78660   0.91516 
C          C       0.53660   0.03660   0.66516 
C          C       0.46340   0.96340   0.66516 
C          C       0.78660   0.21340   0.91516 
C          C       0.71340   0.28660   0.91516 
C          C       0.03660   0.03660   0.16516 
C          C       0.96340   0.96340   0.16516 
C          C       0.28660   0.21340   0.41516 
C          C       0.21340   0.28660   0.41516 
C          C       0.57152   0.42721   0.63906 
C          C       0.42848   0.57279   0.63906 
C          C       0.82152   0.82279   0.88906 
C          C       0.67848   0.67721   0.88906 
C          C       0.07152   0.42721   0.13906 
C          C       0.92848   0.57279   0.13906 
C          C       0.32152   0.82279   0.38906 
C          C       0.17848   0.67721   0.38906 
C          C       0.57152   0.92721   0.13906 
C          C       0.42848   0.07279   0.13906 
C          C       0.82152   0.32279   0.38906 
C          C       0.67848   0.17721   0.38906 
C          C       0.07152   0.92721   0.63906 
C          C       0.92848   0.07279   0.63906 
C          C       0.32152   0.32279   0.88906 
C          C       0.17848   0.17721   0.88906 
C          C       0.57228   0.57227   0.35327 
C          C       0.42772   0.42773   0.35327 
C          C       0.82228   0.67773   0.60327 
C          C       0.67772   0.82227   0.60327 
C          C       0.07228   0.57227   0.85327 
C          C       0.92772   0.42773   0.85327 
C          C       0.32228   0.67773   0.10327 
C          C       0.17772   0.82227   0.10327 
C          C       0.57228   0.07227   0.85327 
C          C       0.42772   0.92773   0.85327 
C          C       0.82228   0.17773   0.10327 
C          C       0.67772   0.32227   0.10327 
C          C       0.07228   0.07227   0.35327 
C          C       0.92772   0.92773   0.35327 
C          C       0.32228   0.17773   0.60327 
C          C       0.17772   0.32227   0.60327 
C          C       0.40427   0.40492   0.54379 
C          C       0.59573   0.59508   0.54379 
C          C       0.65427   0.84508   0.79379 
C          C       0.84573   0.65492   0.79379 
C          C       0.90427   0.40492   0.04379 
C          C       0.09573   0.59508   0.04379 
C          C       0.15427   0.84508   0.29379 
C          C       0.34573   0.65492   0.29379 
C          C       0.40427   0.90492   0.04379 
C          C       0.59573   0.09508   0.04379 
C          C       0.65427   0.34508   0.29379 
C          C       0.84573   0.15492   0.29379 
C          C       0.90427   0.90492   0.54379 
C          C       0.09573   0.09508   0.54379 
C          C       0.15427   0.34508   0.79379 
C          C       0.34573   0.15492   0.79379 
C          C       0.59530   0.40470   0.44786 
C          C       0.40470   0.59530   0.44786 
C          C       0.84530   0.84530   0.69786 
C          C       0.65470   0.65470   0.69786 
C          C       0.09530   0.40470   0.94786 
C          C       0.90470   0.59530   0.94786 
C          C       0.34530   0.84530   0.19786 
C          C       0.15470   0.65470   0.19786 
C          C       0.59530   0.90470   0.94786 
C          C       0.40470   0.09530   0.94786 
C          C       0.84530   0.34530   0.19786 
C          C       0.65470   0.15470   0.19786 
C          C       0.09530   0.90470   0.44786 
C          C       0.90470   0.09530   0.44786 
C          C       0.34530   0.34530   0.69786 
C          C       0.15470   0.15470   0.69786 
C          C       0.62718   0.42930   0.36032 
C          C       0.37282   0.57070   0.36032 
C          C       0.87718   0.82070   0.61032 
C          C       0.62282   0.67930   0.61032 
C          C       0.12718   0.42930   0.86032 
C          C       0.87282   0.57070   0.86032 
C          C       0.37718   0.82070   0.11032 
C          C       0.12282   0.67930   0.11032 
C          C       0.62718   0.92930   0.86032 
C          C       0.37282   0.07070   0.86032 
C          C       0.87718   0.32070   0.11032 
C          C       0.62282   0.17930   0.11032 
C          C       0.12718   0.92930   0.36032 
C          C       0.87282   0.07070   0.36032 
C          C       0.37718   0.32070   0.61032 
C          C       0.12282   0.17930   0.61032 
C          C       0.59367   0.34944   0.45445 
C          C       0.40633   0.65056   0.45445 
C          C       0.84367   0.90056   0.70445 
C          C       0.65633   0.59944   0.70445 
C          C       0.09367   0.34944   0.95445 
C          C       0.90633   0.65056   0.95445 
C          C       0.34367   0.90056   0.20445 
C          C       0.15633   0.59944   0.20445 
C          C       0.59367   0.84944   0.95445 
C          C       0.40633   0.15056   0.95445 
C          C       0.84367   0.40056   0.20445 
C          C       0.65633   0.09944   0.20445 
C          C       0.09367   0.84944   0.45445 
C          C       0.90633   0.15056   0.45445 
C          C       0.34367   0.40056   0.70445 
C          C       0.15633   0.09944   0.70445 
C          C       0.59306   0.64933   0.53099 
C          C       0.40694   0.35067   0.53099 
C          C       0.84306   0.60067   0.78099 
C          C       0.65694   0.89933   0.78099 
C          C       0.09306   0.64933   0.03099 
C          C       0.90694   0.35067   0.03099 
C          C       0.34306   0.60067   0.28099 
C          C       0.15694   0.89933   0.28099 
C          C       0.59306   0.14933   0.03099 
C          C       0.40694   0.85067   0.03099 
C          C       0.84306   0.10067   0.28099 
C          C       0.65694   0.39933   0.28099 
C          C       0.09306   0.14933   0.53099 
C          C       0.90694   0.85067   0.53099 
C          C       0.34306   0.10067   0.78099 
C          C       0.15694   0.39933   0.78099 
C          C       0.62658   0.56947   0.62522 
C          C       0.37342   0.43053   0.62522 
C          C       0.87658   0.68053   0.87522 
C          C       0.62342   0.81947   0.87522 
C          C       0.12658   0.56947   0.12522 
C          C       0.87342   0.43053   0.12522 
C          C       0.37658   0.68053   0.37522 
C          C       0.12342   0.81947   0.37522 
C          C       0.62658   0.06947   0.12522 
C          C       0.37342   0.93053   0.12522 
C          C       0.87658   0.18053   0.37522 
C          C       0.62342   0.31947   0.37522 
C          C       0.12658   0.06947   0.62522 
C          C       0.87342   0.93053   0.62522 
C          C       0.37658   0.18053   0.87522 
C          C       0.12342   0.31947   0.87522 
H          H       0.56749   0.43251   0.87024 
H          H       0.43251   0.56749   0.87024 
H          H       0.81749   0.81749   0.12024 
H          H       0.68251   0.68251   0.12024 
H          H       0.06749   0.43251   0.37024 
H          H       0.93251   0.56749   0.37024 
H          H       0.31749   0.81749   0.62024 
H          H       0.18251   0.68251   0.62024 
H          H       0.56749   0.93251   0.37024 
H          H       0.43251   0.06749   0.37024 
H          H       0.81749   0.31749   0.62024 
H          H       0.68251   0.18251   0.62024 
H          H       0.06749   0.93251   0.87024 
H          H       0.93251   0.06749   0.87024 
H          H       0.31749   0.31749   0.12024 
H          H       0.18251   0.18251   0.12024 
H          H       0.56397   0.56397   0.12397 
H          H       0.43603   0.43603   0.12397 
H          H       0.81397   0.68603   0.37397 
H          H       0.68603   0.81397   0.37397 
H          H       0.06397   0.56397   0.62397 
H          H       0.93603   0.43603   0.62397 
H          H       0.31397   0.68603   0.87397 
H          H       0.18603   0.81397   0.87397 
H          H       0.56397   0.06397   0.62397 
H          H       0.43603   0.93603   0.62397 
H          H       0.81397   0.18603   0.87397 
H          H       0.68603   0.31397   0.87397 
H          H       0.06397   0.06397   0.12397 
H          H       0.93603   0.93603   0.12397 
H          H       0.31397   0.18603   0.37397 
H          H       0.18603   0.31397   0.37397 
H          H       0.62846   0.47457   0.35479 
H          H       0.37154   0.52543   0.35479 
H          H       0.87846   0.77543   0.60479 
H          H       0.62154   0.72457   0.60479 
H          H       0.12846   0.47457   0.85479 
H          H       0.87154   0.52543   0.85479 
H          H       0.37846   0.77543   0.10479 
H          H       0.12154   0.72457   0.10479 
H          H       0.62846   0.97457   0.85479 
H          H       0.37154   0.02543   0.85479 
H          H       0.87846   0.27543   0.10479 
H          H       0.62154   0.22457   0.10479 
H          H       0.12846   0.97457   0.35479 
H          H       0.87154   0.02543   0.35479 
H          H       0.37846   0.27543   0.60479 
H          H       0.12154   0.22457   0.60479 
H          H       0.56743   0.32923   0.52617 
H          H       0.43257   0.67077   0.52617 
H          H       0.81743   0.92077   0.77617 
H          H       0.68257   0.57923   0.77617 
H          H       0.06743   0.32923   0.02617 
H          H       0.93257   0.67077   0.02617 
H          H       0.31743   0.92077   0.27617 
H          H       0.18257   0.57923   0.27617 
H          H       0.56743   0.82923   0.02617 
H          H       0.43257   0.17077   0.02617 
H          H       0.81743   0.42077   0.27617 
H          H       0.68257   0.07923   0.27617 
H          H       0.06743   0.82923   0.52617 
H          H       0.93257   0.17077   0.52617 
H          H       0.31743   0.42077   0.77617 
H          H       0.18257   0.07923   0.77617 
H          H       0.56685   0.66721   0.45668 
H          H       0.43315   0.33279   0.45668 
H          H       0.81685   0.58279   0.70668 
H          H       0.68315   0.91721   0.70668 
H          H       0.06685   0.66721   0.95668 
H          H       0.93315   0.33279   0.95668 
H          H       0.31685   0.58279   0.20668 
H          H       0.18315   0.91721   0.20668 
H          H       0.56685   0.16721   0.95668 
H          H       0.43315   0.83279   0.95668 
H          H       0.81685   0.08279   0.20668 
H          H       0.68315   0.41721   0.20668 
H          H       0.06685   0.16721   0.45668 
H          H       0.93315   0.83279   0.45668 
H          H       0.31685   0.08279   0.70668 
H          H       0.18315   0.41721   0.70668 
H          H       0.62735   0.52412   0.62669 
H          H       0.37265   0.47588   0.62669 
H          H       0.87735   0.72588   0.87669 
H          H       0.62265   0.77412   0.87669 
H          H       0.12735   0.52412   0.12669 
H          H       0.87265   0.47588   0.12669 
H          H       0.37735   0.72588   0.37669 
H          H       0.12265   0.77412   0.37669 
H          H       0.62735   0.02412   0.12669 
H          H       0.37265   0.97588   0.12669 
H          H       0.87735   0.22588   0.37669 
H          H       0.62265   0.27412   0.37669 
H          H       0.12735   0.02412   0.62669 
H          H       0.87265   0.97588   0.62669 
H          H       0.37735   0.22588   0.87669 
H          H       0.12265   0.27412   0.87669 
B          B       0.26468   0.07148   0.44347 
B          B       0.73532   0.92852   0.44347 
B          B       0.51468   0.17852   0.69347 
B          B       0.98532   0.32148   0.69347 
B          B       0.76468   0.07148   0.94347 
B          B       0.23532   0.92852   0.94347 
B          B       0.01468   0.17852   0.19347 
B          B       0.48532   0.32148   0.19347 
B          B       0.26468   0.57148   0.94347 
B          B       0.73532   0.42852   0.94347 
B          B       0.51468   0.67852   0.19347 
B          B       0.98532   0.82148   0.19347 
B          B       0.76468   0.57148   0.44347 
B          B       0.23532   0.42852   0.44347 
B          B       0.01468   0.67852   0.69347 
B          B       0.48532   0.82148   0.69347 
F          F       0.20385   0.07760   0.50383 
F          F       0.79615   0.92240   0.50383 
F          F       0.45385   0.17240   0.75383 
F          F       0.04615   0.32760   0.75383 
F          F       0.70385   0.07760   0.00383 
F          F       0.29615   0.92240   0.00383 
F          F       0.95385   0.17240   0.25383 
F          F       0.54615   0.32760   0.25383 
F          F       0.20385   0.57760   0.00383 
F          F       0.79615   0.42240   0.00383 
F          F       0.45385   0.67240   0.25383 
F          F       0.04615   0.82760   0.25383 
F          F       0.70385   0.57760   0.50383 
F          F       0.29615   0.42240   0.50383 
F          F       0.95385   0.67240   0.75383 
F          F       0.54615   0.82760   0.75383 
F          F       0.30884   0.03663   0.49990 
F          F       0.69116   0.96337   0.49990 
F          F       0.55884   0.21337   0.74990 
F          F       0.94116   0.28663   0.74990 
F          F       0.80884   0.03663   0.99990 
F          F       0.19116   0.96337   0.99990 
F          F       0.05884   0.21337   0.24990 
F          F       0.44116   0.28663   0.24990 
F          F       0.30884   0.53663   0.99990 
F          F       0.69116   0.46337   0.99990 
F          F       0.55884   0.71337   0.24990 
F          F       0.94116   0.78663   0.24990 
F          F       0.80884   0.53663   0.49990 
F          F       0.19116   0.46337   0.49990 
F          F       0.05884   0.71337   0.74990 
F          F       0.44116   0.78663   0.74990 
F          F       0.25002   0.04957   0.33945 
F          F       0.74998   0.95043   0.33945 
F          F       0.50002   0.20043   0.58945 
F          F       0.99998   0.29957   0.58945 
F          F       0.75002   0.04957   0.83945 
F          F       0.24998   0.95043   0.83945 
F          F       0.00002   0.20043   0.08945 
F          F       0.49998   0.29957   0.08945 
F          F       0.25002   0.54957   0.83945 
F          F       0.74998   0.45043   0.83945 
F          F       0.50002   0.70043   0.08945 
F          F       0.99998   0.79957   0.08945 
F          F       0.75002   0.54957   0.33945 
F          F       0.24998   0.45043   0.33945 
F          F       0.00002   0.70043   0.58945 
F          F       0.49998   0.79957   0.58945 
F          F       0.29648   0.12183   0.43060 
F          F       0.70352   0.87817   0.43060 
F          F       0.54648   0.12817   0.68060 
F          F       0.95352   0.37183   0.68060 
F          F       0.79648   0.12183   0.93060 
F          F       0.20352   0.87817   0.93060 
F          F       0.04648   0.12817   0.18060 
F          F       0.45352   0.37183   0.18060 
F          F       0.29648   0.62183   0.93060 
F          F       0.70352   0.37817   0.93060 
F          F       0.54648   0.62817   0.18060 
F          F       0.95352   0.87183   0.18060 
F          F       0.79648   0.62183   0.43060 
F          F       0.20352   0.37817   0.43060 
F          F       0.04648   0.62817   0.68060 
F          F       0.45352   0.87183   0.68060 
H          H       0.39635   0.60684   0.67220 
H          H       0.60365   0.39316   0.67220 
H          H       0.64635   0.64316   0.92220 
H          H       0.85365   0.85684   0.92220 
H          H       0.89635   0.60684   0.17220 
H          H       0.10365   0.39316   0.17220 
H          H       0.14635   0.64316   0.42220 
H          H       0.35365   0.85684   0.42220 
H          H       0.39635   0.10684   0.17220 
H          H       0.60365   0.89316   0.17220 
H          H       0.64635   0.14316   0.42220 
H          H       0.85365   0.35684   0.42220 
H          H       0.89635   0.10684   0.67220 
H          H       0.10365   0.89316   0.67220 
H          H       0.14635   0.14316   0.92220 
H          H       0.35365   0.35684   0.92220 
H          H       0.60604   0.60600   0.32307 
H          H       0.39396   0.39400   0.32307 
H          H       0.85604   0.64400   0.57307 
H          H       0.64396   0.85600   0.57307 
H          H       0.10604   0.60600   0.82307 
H          H       0.89396   0.39400   0.82307 
H          H       0.35604   0.64400   0.07307 
H          H       0.14396   0.85600   0.07307 
H          H       0.60604   0.10600   0.82307 
H          H       0.39396   0.89400   0.82307 
H          H       0.85604   0.14400   0.07307 
H          H       0.64396   0.35600   0.07307 
H          H       0.10604   0.10600   0.32307 
H          H       0.89396   0.89400   0.32307 
H          H       0.35604   0.14400   0.57307 
H          H       0.14396   0.35600   0.57307 
Co         Co      0.50000   0.50000   0.49586 
Co         Co      0.75000   0.75000   0.74586 
Co         Co     -0.00000   0.50000   0.99586 
Co         Co      0.25000   0.75000   0.24586 
Co         Co      0.50000  -0.00000   0.99586 
Co         Co      0.75000   0.25000   0.24586 
Co         Co     -0.00000  -0.00000   0.49586 
Co         Co      0.25000   0.25000   0.74586 
N          N       0.50000   0.50000   0.65595 
N          N       0.75000   0.75000   0.90595 
N          N      -0.00000   0.50000   0.15595 
N          N       0.25000   0.75000   0.40595 
N          N       0.50000  -0.00000   0.15595 
N          N       0.75000   0.25000   0.40595 
N          N      -0.00000  -0.00000   0.65595 
N          N       0.25000   0.25000   0.90595 
N          N       0.50000   0.50000   0.33286 
N          N       0.75000   0.75000   0.58286 
N          N      -0.00000   0.50000   0.83286 
N          N       0.25000   0.75000   0.08286 
N          N       0.50000  -0.00000   0.83286 
N          N       0.75000   0.25000   0.08286 
N          N      -0.00000  -0.00000   0.33286 
N          N       0.25000   0.25000   0.58286 
C          C       0.50000   0.50000   0.10756 
C          C       0.75000   0.75000   0.35756 
C          C      -0.00000   0.50000   0.60756 
C          C       0.25000   0.75000   0.85756 
C          C       0.50000  -0.00000   0.60756 
C          C       0.75000   0.25000   0.85756 
C          C      -0.00000  -0.00000   0.10756 
C          C       0.25000   0.25000   0.35756 
C          C       0.50000   0.50000   0.88135 
C          C       0.75000   0.75000   0.13135 
C          C      -0.00000   0.50000   0.38135 
C          C       0.25000   0.75000   0.63135 
C          C       0.50000  -0.00000   0.38135 
C          C       0.75000   0.25000   0.63135 
C          C      -0.00000  -0.00000   0.88135 
C          C       0.25000   0.25000   0.13135 
H          H       0.50000   0.50000   0.03415 
H          H       0.75000   0.75000   0.28415 
H          H      -0.00000   0.50000   0.53415 
H          H       0.25000   0.75000   0.78415 
H          H       0.50000  -0.00000   0.53415 
H          H       0.75000   0.25000   0.78415 
H          H      -0.00000  -0.00000   0.03415 
H          H       0.25000   0.25000   0.28415 
H          H       0.50000   0.50000   0.95476 
H          H       0.75000   0.75000   0.20476 
H          H      -0.00000   0.50000   0.45476 
H          H       0.25000   0.75000   0.70476 
H          H       0.50000  -0.00000   0.45476 
H          H       0.75000   0.25000   0.70476 
H          H      -0.00000  -0.00000   0.95476 
H          H       0.25000   0.25000   0.20476 
