data_crystal
 
_cell_length_a    25.20000
_cell_length_b    25.20000
_cell_length_c    6.80000
_cell_angle_alpha 90.00000
_cell_angle_beta  90.00000
_cell_angle_gamma 120.00000
 
_symmetry_space_group_name_Hall 'P 1'
_symmetry_space_group_name_H-M  'P 1'
 
loop_
_symmetry_equiv_pos_as_xyz
 'x,y,z' 
 
loop_
_atom_site_label
_atom_site_type_symbol
_atom_site_fract_x
_atom_site_fract_y
_atom_site_fract_z
C          C       0.36091   0.63106   0.00000 
C          C       0.36894   0.72985   0.00000 
C          C       0.27015   0.63909   0.00000 
C          C       0.39056   0.59799   0.00000 
C          C       0.40201   0.79257   0.00000 
C          C       0.20743   0.60944   0.00000 
N          N       0.36713   0.53987   0.00000 
N          N       0.46013   0.82726   0.00000 
N          N       0.17274   0.63287   0.00000 
C          C       0.40663   0.51292   0.00000 
C          C       0.48708   0.89371   0.00000 
C          C       0.10629   0.59337   0.00000 
C          C       0.41700   0.42440   0.00000 
C          C       0.57560   0.99260   0.00000 
C          C       0.00740   0.58300   0.00000 
C          C       0.48076   0.46274   0.00000 
C          C       0.53726   0.01802   0.00000 
C          C       0.98198   0.51924   0.00000 
C          C       0.50518   0.52337   0.00000 
C          C       0.47663   0.98181   0.00000 
C          C       0.01819   0.49482   0.00000 
C          C       0.46846   0.54903   0.00000 
C          C       0.45097   0.91943   0.00000 
C          C       0.08057   0.53154   0.00000 
C          C       0.52017   0.43734   0.00000 
C          C       0.56266   0.08283   0.00000 
C          C       0.91717   0.47983   0.00000 
C          C       0.49139   0.37141   0.00000 
C          C       0.62859   0.11998   0.00000 
C          C       0.88002   0.50861   0.00000 
C          C       0.52842   0.34602   0.00000 
C          C       0.65398   0.18240   0.00000 
C          C       0.81760   0.47158   0.00000 
C          C       0.59083   0.38330   0.00000 
C          C       0.61670   0.20753   0.00000 
C          C       0.79247   0.40917   0.00000 
C          C       0.61611   0.44534   0.00000 
C          C       0.55466   0.17077   0.00000 
C          C       0.82923   0.38389   0.00000 
C          C       0.57908   0.47073   0.00000 
C          C       0.52927   0.10835   0.00000 
C          C       0.89165   0.42092   0.00000 
C          C       0.62958   0.35745   0.00000 
C          C       0.64255   0.27213   0.00000 
C          C       0.72787   0.37042   0.00000 
C          C       0.39603   0.69355   0.00000 
C          C       0.30645   0.70248   0.00000 
C          C       0.29752   0.60397   0.00000 
N          N       0.60393   0.29498   0.00000 
N          N       0.70502   0.30895   0.00000 
N          N       0.69105   0.39607   0.00000 
O          O       0.45486   0.71726   0.00000 
O          O       0.28274   0.73760   0.00000 
O          O       0.26240   0.54514   0.00000 
C          C       0.37866   0.44980   0.00000 
C          C       0.55020   0.92886   0.00000 
C          C       0.07114   0.62134   0.00000 
H          H       0.39632   0.37251   0.00000 
H          H       0.62749   0.02381   0.00000 
H          H       0.97619   0.60368   0.00000 
H          H       0.55710   0.55437   0.00000 
H          H       0.44563   0.00273   0.00000 
H          H       0.99727   0.44290   0.00000 
H          H       0.49009   0.60102   0.00000 
H          H       0.39898   0.88907   0.00000 
H          H       0.11093   0.50991   0.00000 
H          H       0.43929   0.34206   0.00000 
H          H       0.65794   0.09723   0.00000 
H          H       0.90277   0.56071   0.00000 
H          H       0.50729   0.29408   0.00000 
H          H       0.70592   0.21321   0.00000 
H          H       0.78679   0.49271   0.00000 
H          H       0.66805   0.47612   0.00000 
H          H       0.52388   0.19193   0.00000 
H          H       0.80807   0.33195   0.00000 
H          H       0.60164   0.52281   0.00000 
H          H       0.47719   0.07883   0.00000 
H          H       0.92117   0.39836   0.00000 
H          H       0.32654   0.42077   0.00000 
H          H       0.57923   0.90577   0.00000 
H          H       0.09423   0.67346   0.00000 
C          C       0.36091   0.63106   0.50000 
C          C       0.36894   0.72985   0.50000 
C          C       0.27015   0.63909   0.50000 
C          C       0.39056   0.59799   0.50000 
C          C       0.40201   0.79257   0.50000 
C          C       0.20743   0.60944   0.50000 
N          N       0.36713   0.53987   0.50000 
N          N       0.46013   0.82726   0.50000 
N          N       0.17274   0.63287   0.50000 
C          C       0.40663   0.51292   0.50000 
C          C       0.48708   0.89371   0.50000 
C          C       0.10629   0.59337   0.50000 
C          C       0.41700   0.42440   0.50000 
C          C       0.57560   0.99260   0.50000 
C          C       0.00740   0.58300   0.50000 
C          C       0.48076   0.46274   0.50000 
C          C       0.53726   0.01802   0.50000 
C          C       0.98198   0.51924   0.50000 
C          C       0.50518   0.52337   0.50000 
C          C       0.47663   0.98181   0.50000 
C          C       0.01819   0.49482   0.50000 
C          C       0.46846   0.54903   0.50000 
C          C       0.45097   0.91943   0.50000 
C          C       0.08057   0.53154   0.50000 
C          C       0.52017   0.43734   0.50000 
C          C       0.56266   0.08283   0.50000 
C          C       0.91717   0.47983   0.50000 
C          C       0.49139   0.37141   0.50000 
C          C       0.62859   0.11998   0.50000 
C          C       0.88002   0.50861   0.50000 
C          C       0.52842   0.34602   0.50000 
C          C       0.65398   0.18240   0.50000 
C          C       0.81760   0.47158   0.50000 
C          C       0.59083   0.38330   0.50000 
C          C       0.61670   0.20753   0.50000 
C          C       0.79247   0.40917   0.50000 
C          C       0.61611   0.44534   0.50000 
C          C       0.55466   0.17077   0.50000 
C          C       0.82923   0.38389   0.50000 
C          C       0.57908   0.47073   0.50000 
C          C       0.52927   0.10835   0.50000 
C          C       0.89165   0.42092   0.50000 
C          C       0.62958   0.35745   0.50000 
C          C       0.64255   0.27213   0.50000 
C          C       0.72787   0.37042   0.50000 
C          C       0.39603   0.69355   0.50000 
C          C       0.30645   0.70248   0.50000 
C          C       0.29752   0.60397   0.50000 
N          N       0.60393   0.29498   0.50000 
N          N       0.70502   0.30895   0.50000 
N          N       0.69105   0.39607   0.50000 
O          O       0.45486   0.71726   0.50000 
O          O       0.28274   0.73760   0.50000 
O          O       0.26240   0.54514   0.50000 
C          C       0.37866   0.44980   0.50000 
C          C       0.55020   0.92886   0.50000 
C          C       0.07114   0.62134   0.50000 
H          H       0.39632   0.37251   0.50000 
H          H       0.62749   0.02381   0.50000 
H          H       0.97619   0.60368   0.50000 
H          H       0.55710   0.55437   0.50000 
H          H       0.44563   0.00273   0.50000 
H          H       0.99727   0.44290   0.50000 
H          H       0.49009   0.60102   0.50000 
H          H       0.39898   0.88907   0.50000 
H          H       0.11093   0.50991   0.50000 
H          H       0.43929   0.34206   0.50000 
H          H       0.65794   0.09723   0.50000 
H          H       0.90277   0.56071   0.50000 
H          H       0.50729   0.29408   0.50000 
H          H       0.70592   0.21321   0.50000 
H          H       0.78679   0.49271   0.50000 
H          H       0.66805   0.47612   0.50000 
H          H       0.52388   0.19193   0.50000 
H          H       0.80807   0.33195   0.50000 
H          H       0.60164   0.52281   0.50000 
H          H       0.47719   0.07883   0.50000 
H          H       0.92117   0.39836   0.50000 
H          H       0.32654   0.42077   0.50000 
H          H       0.57923   0.90577   0.50000 
H          H       0.09423   0.67346   0.50000 
