data_crystal
 
_cell_length_a    38.82000
_cell_length_b    38.82000
_cell_length_c    8.10000
_cell_angle_alpha 90.00000
_cell_angle_beta  90.00000
_cell_angle_gamma 120.00000
 
_symmetry_space_group_name_Hall 'P 1'
_symmetry_space_group_name_H-M  'P 1'
 
loop_
_symmetry_equiv_pos_as_xyz
 'x,y,z' 
 
loop_
_atom_site_label
_atom_site_type_symbol
_atom_site_fract_x
_atom_site_fract_y
_atom_site_fract_z
_atom_site_charge
O          O       0.41326   0.71150   0.00000   0.0000000000
O          O       0.28850   0.70176   0.00000   0.0000000000
O          O       0.29824   0.58674   0.00000   0.0000000000
O          O       0.58674   0.28850   0.00000   0.0000000000
O          O       0.71150   0.29824   0.00000   0.0000000000
O          O       0.70176   0.41326   0.00000   0.0000000000
C          C       0.37709   0.69150   0.00000   0.0000000000
C          C       0.30850   0.68559   0.00000   0.0000000000
C          C       0.31441   0.62291   0.00000   0.0000000000
C          C       0.62291   0.30850   0.00000   0.0000000000
C          C       0.69150   0.31441   0.00000   0.0000000000
C          C       0.68559   0.37709   0.00000   0.0000000000
C          C       0.35870   0.64738   0.00000   0.0000000000
C          C       0.35262   0.71132   0.00000   0.0000000000
C          C       0.28868   0.64130   0.00000   0.0000000000
C          C       0.64130   0.35262   0.00000   0.0000000000
C          C       0.64738   0.28868   0.00000   0.0000000000
C          C       0.71132   0.35870   0.00000   0.0000000000
H          H       0.41515   0.65313   0.00000   0.0000000000
H          H       0.34687   0.76202   0.00000   0.0000000000
H          H       0.23798   0.58485   0.00000   0.0000000000
H          H       0.58485   0.34687   0.00000   0.0000000000
H          H       0.65313   0.23798   0.00000   0.0000000000
H          H       0.76202   0.41515   0.00000   0.0000000000
C          C       0.38373   0.63214   0.00000   0.0000000000
C          C       0.36786   0.75159   0.00000   0.0000000000
C          C       0.24841   0.61627   0.00000   0.0000000000
C          C       0.61627   0.36786   0.00000   0.0000000000
C          C       0.63214   0.24841   0.00000   0.0000000000
C          C       0.75159   0.38373   0.00000   0.0000000000
N          N       0.37198   0.59044   0.00000   0.0000000000
N          N       0.40956   0.78154   0.00000   0.0000000000
N          N       0.21846   0.62802   0.00000   0.0000000000
N          N       0.62802   0.40956   0.00000   0.0000000000
N          N       0.59044   0.21846   0.00000   0.0000000000
N          N       0.78154   0.37198   0.00000   0.0000000000
H          H       0.34212   0.56894   0.00000   0.0000000000
H          H       0.43106   0.77318   0.00000   0.0000000000
H          H       0.22682   0.65788   0.00000   0.0000000000
H          H       0.65788   0.43106   0.00000   0.0000000000
H          H       0.56894   0.22682   0.00000   0.0000000000
H          H       0.77318   0.34212   0.00000   0.0000000000
C          C       0.39898   0.57503   0.00000   0.0000000000
C          C       0.42497   0.82395   0.00000   0.0000000000
C          C       0.17605   0.60102   0.00000   0.0000000000
C          C       0.60102   0.42497   0.00000   0.0000000000
C          C       0.57503   0.17605   0.00000   0.0000000000
C          C       0.82395   0.39898   0.00000   0.0000000000
H          H       0.35150   0.51433   0.00000   0.0000000000
H          H       0.48567   0.83717   0.00000   0.0000000000
H          H       0.16283   0.64850   0.00000   0.0000000000
H          H       0.64850   0.48567   0.00000   0.0000000000
H          H       0.51433   0.16283   0.00000   0.0000000000
H          H       0.83717   0.35150   0.00000   0.0000000000
C          C       0.38345   0.53400   0.00000   0.0000000000
C          C       0.46600   0.84945   0.00000   0.0000000000
C          C       0.15055   0.61655   0.00000   0.0000000000
C          C       0.61655   0.46600   0.00000   0.0000000000
C          C       0.53400   0.15055   0.00000   0.0000000000
C          C       0.84945   0.38345   0.00000   0.0000000000
C          C       0.44033   0.59914   0.00000   0.0000000000
C          C       0.40086   0.84119   0.00000   0.0000000000
C          C       0.15881   0.55967   0.00000   0.0000000000
C          C       0.55967   0.40086   0.00000   0.0000000000
C          C       0.59914   0.15881   0.00000   0.0000000000
C          C       0.84119   0.44033   0.00000   0.0000000000
H          H       0.45473   0.63117   0.00000   0.0000000000
H          H       0.36883   0.82356   0.00000   0.0000000000
H          H       0.17644   0.54527   0.00000   0.0000000000
H          H       0.54527   0.36883   0.00000   0.0000000000
H          H       0.63117   0.17644   0.00000   0.0000000000
H          H       0.82356   0.45473   0.00000   0.0000000000
H          H       0.49454   0.60189   0.00000   0.0000000000
H          H       0.39811   0.89265   0.00000   0.0000000000
H          H       0.10735   0.50546   0.00000   0.0000000000
H          H       0.50546   0.39811   0.00000   0.0000000000
H          H       0.60189   0.10735   0.00000   0.0000000000
H          H       0.89265   0.49454   0.00000   0.0000000000
C          C       0.46482   0.58223   0.00000   0.0000000000
C          C       0.41777   0.88259   0.00000   0.0000000000
C          C       0.11741   0.53518   0.00000   0.0000000000
C          C       0.53518   0.41777   0.00000   0.0000000000
C          C       0.58223   0.11741   0.00000   0.0000000000
C          C       0.88259   0.46482   0.00000   0.0000000000
C          C       0.40832   0.51752   0.00000   0.0000000000
C          C       0.48248   0.89080   0.00000   0.0000000000
C          C       0.10920   0.59168   0.00000   0.0000000000
C          C       0.59168   0.48248   0.00000   0.0000000000
C          C       0.51752   0.10920   0.00000   0.0000000000
C          C       0.89080   0.40832   0.00000   0.0000000000
H          H       0.39151   0.48570   0.00000   0.0000000000
H          H       0.51430   0.90581   0.00000   0.0000000000
H          H       0.09419   0.60849   0.00000   0.0000000000
H          H       0.60849   0.51430   0.00000   0.0000000000
H          H       0.48570   0.09419   0.00000   0.0000000000
H          H       0.90581   0.39151   0.00000   0.0000000000
C          C       0.45100   0.54143   0.00000   0.0000000000
C          C       0.45857   0.90957   0.00000   0.0000000000
C          C       0.09043   0.54900   0.00000   0.0000000000
C          C       0.54900   0.45857   0.00000   0.0000000000
C          C       0.54143   0.09043   0.00000   0.0000000000
C          C       0.90957   0.45100   0.00000   0.0000000000
C          C       0.47936   0.52370   0.00000   0.0000000000
C          C       0.47630   0.95566   0.00000   0.0000000000
C          C       0.04434   0.52064   0.00000   0.0000000000
C          C       0.52064   0.47630   0.00000   0.0000000000
C          C       0.52370   0.04434   0.00000   0.0000000000
C          C       0.95566   0.47936   0.00000   0.0000000000
H          H       0.42852   0.46567   0.00000   0.0000000000
H          H       0.53433   0.96285   0.00000   0.0000000000
H          H       0.03715   0.57148   0.00000   0.0000000000
H          H       0.57148   0.53433   0.00000   0.0000000000
H          H       0.46567   0.03715   0.00000   0.0000000000
H          H       0.96285   0.42852   0.00000   0.0000000000
C          C       0.45999   0.48154   0.00000   0.0000000000
C          C       0.51846   0.97845   0.00000   0.0000000000
C          C       0.02155   0.54001   0.00000   0.0000000000
C          C       0.54001   0.51846   0.00000   0.0000000000
C          C       0.48154   0.02155   0.00000   0.0000000000
C          C       0.97845   0.45999   0.00000   0.0000000000
C          C       0.52264   0.54332   0.00000   0.0000000000
C          C       0.45668   0.97932   0.00000   0.0000000000
C          C       0.02068   0.47736   0.00000   0.0000000000
C          C       0.47736   0.45668   0.00000   0.0000000000
C          C       0.54332   0.02068   0.00000   0.0000000000
C          C       0.97932   0.52264   0.00000   0.0000000000
C          C       0.55836   0.58735   0.00000   0.0000000000
C          C       0.41265   0.97101   0.00000   0.0000000000
C          C       0.02899   0.44164   0.00000   0.0000000000
C          C       0.44164   0.41265   0.00000   0.0000000000
C          C       0.58735   0.02899   0.00000   0.0000000000
C          C       0.97101   0.55836   0.00000   0.0000000000
H          H       0.57634   0.58922   0.10962   0.0000000000
H          H       0.41078   0.98712   0.10962   0.0000000000
H          H       0.01288   0.42366   0.10962   0.0000000000
H          H       0.42366   0.41078   0.10962   0.0000000000
H          H       0.58922   0.01288   0.10962   0.0000000000
H          H       0.98712   0.57634   0.10962   0.0000000000
H          H       0.42366   0.41078   0.39038   0.0000000000
H          H       0.58922   0.01288   0.39038   0.0000000000
H          H       0.98712   0.57634   0.39038   0.0000000000
H          H       0.57634   0.58922   0.39038   0.0000000000
H          H       0.41078   0.98712   0.39038   0.0000000000
H          H       0.01288   0.42366   0.39038   0.0000000000
S          S       0.56344   0.63688   0.00000   0.0000000000
S          S       0.36312   0.92656   0.00000   0.0000000000
S          S       0.07344   0.43656   0.00000   0.0000000000
S          S       0.43656   0.36312   0.00000   0.0000000000
S          S       0.63688   0.07344   0.00000   0.0000000000
S          S       0.92656   0.56344   0.00000   0.0000000000
C          C       0.61751   0.66494   0.00000   0.0000000000
C          C       0.33506   0.95257   0.00000   0.0000000000
C          C       0.04743   0.38249   0.00000   0.0000000000
C          C       0.38249   0.33506   0.00000   0.0000000000
C          C       0.66494   0.04743   0.00000   0.0000000000
C          C       0.95257   0.61751   0.00000   0.0000000000
H          H       0.62927   0.65755   0.11084   0.0000000000
H          H       0.34245   0.97172   0.11084   0.0000000000
H          H       0.02828   0.37073   0.11084   0.0000000000
H          H       0.37073   0.34245   0.11084   0.0000000000
H          H       0.65755   0.02828   0.11084   0.0000000000
H          H       0.97172   0.62927   0.11084   0.0000000000
H          H       0.37073   0.34245   0.38916   0.0000000000
H          H       0.65755   0.02828   0.38916   0.0000000000
H          H       0.97172   0.62927   0.38916   0.0000000000
H          H       0.62927   0.65755   0.38916   0.0000000000
H          H       0.34245   0.97172   0.38916   0.0000000000
H          H       0.02828   0.37073   0.38916   0.0000000000
C          C       0.63061   0.70894   0.00000   0.0000000000
C          C       0.29106   0.92167   0.00000   0.0000000000
C          C       0.07833   0.36939   0.00000   0.0000000000
C          C       0.36939   0.29106   0.00000   0.0000000000
C          C       0.70894   0.07833   0.00000   0.0000000000
C          C       0.92167   0.63061   0.00000   0.0000000000
H          H       0.61844   0.71616   0.10988   0.0000000000
H          H       0.28384   0.90228   0.10988   0.0000000000
H          H       0.09772   0.38156   0.10988   0.0000000000
H          H       0.38156   0.28384   0.10988   0.0000000000
H          H       0.71616   0.09772   0.10988   0.0000000000
H          H       0.90228   0.61844   0.10988   0.0000000000
H          H       0.38156   0.28384   0.39012   0.0000000000
H          H       0.71616   0.09772   0.39012   0.0000000000
H          H       0.90228   0.61844   0.39012   0.0000000000
H          H       0.61844   0.71616   0.39012   0.0000000000
H          H       0.28384   0.90228   0.39012   0.0000000000
H          H       0.09772   0.38156   0.39012   0.0000000000
H          H       0.66354   0.72730   0.00000   0.0000000000
H          H       0.27270   0.93624   0.00000   0.0000000000
H          H       0.06376   0.33646   0.00000   0.0000000000
H          H       0.33646   0.27270   0.00000   0.0000000000
H          H       0.72730   0.06376   0.00000   0.0000000000
H          H       0.93624   0.66354   0.00000   0.0000000000
O          O       0.41326   0.71150   0.50000   0.0000000000
O          O       0.28850   0.70176   0.50000   0.0000000000
O          O       0.29824   0.58674   0.50000   0.0000000000
O          O       0.58674   0.28850   0.50000   0.0000000000
O          O       0.71150   0.29824   0.50000   0.0000000000
O          O       0.70176   0.41326   0.50000   0.0000000000
C          C       0.37709   0.69150   0.50000   0.0000000000
C          C       0.30850   0.68559   0.50000   0.0000000000
C          C       0.31441   0.62291   0.50000   0.0000000000
C          C       0.62291   0.30850   0.50000   0.0000000000
C          C       0.69150   0.31441   0.50000   0.0000000000
C          C       0.68559   0.37709   0.50000   0.0000000000
C          C       0.35870   0.64738   0.50000   0.0000000000
C          C       0.35262   0.71132   0.50000   0.0000000000
C          C       0.28868   0.64130   0.50000   0.0000000000
C          C       0.64130   0.35262   0.50000   0.0000000000
C          C       0.64738   0.28868   0.50000   0.0000000000
C          C       0.71132   0.35870   0.50000   0.0000000000
H          H       0.41515   0.65313   0.50000   0.0000000000
H          H       0.34687   0.76202   0.50000   0.0000000000
H          H       0.23798   0.58485   0.50000   0.0000000000
H          H       0.58485   0.34687   0.50000   0.0000000000
H          H       0.65313   0.23798   0.50000   0.0000000000
H          H       0.76202   0.41515   0.50000   0.0000000000
C          C       0.38373   0.63214   0.50000   0.0000000000
C          C       0.36786   0.75159   0.50000   0.0000000000
C          C       0.24841   0.61627   0.50000   0.0000000000
C          C       0.61627   0.36786   0.50000   0.0000000000
C          C       0.63214   0.24841   0.50000   0.0000000000
C          C       0.75159   0.38373   0.50000   0.0000000000
N          N       0.37198   0.59044   0.50000   0.0000000000
N          N       0.40956   0.78154   0.50000   0.0000000000
N          N       0.21846   0.62802   0.50000   0.0000000000
N          N       0.62802   0.40956   0.50000   0.0000000000
N          N       0.59044   0.21846   0.50000   0.0000000000
N          N       0.78154   0.37198   0.50000   0.0000000000
H          H       0.34212   0.56894   0.50000   0.0000000000
H          H       0.43106   0.77318   0.50000   0.0000000000
H          H       0.22682   0.65788   0.50000   0.0000000000
H          H       0.65788   0.43106   0.50000   0.0000000000
H          H       0.56894   0.22682   0.50000   0.0000000000
H          H       0.77318   0.34212   0.50000   0.0000000000
C          C       0.39898   0.57503   0.50000   0.0000000000
C          C       0.42497   0.82395   0.50000   0.0000000000
C          C       0.17605   0.60102   0.50000   0.0000000000
C          C       0.60102   0.42497   0.50000   0.0000000000
C          C       0.57503   0.17605   0.50000   0.0000000000
C          C       0.82395   0.39898   0.50000   0.0000000000
H          H       0.35150   0.51433   0.50000   0.0000000000
H          H       0.48567   0.83717   0.50000   0.0000000000
H          H       0.16283   0.64850   0.50000   0.0000000000
H          H       0.64850   0.48567   0.50000   0.0000000000
H          H       0.51433   0.16283   0.50000   0.0000000000
H          H       0.83717   0.35150   0.50000   0.0000000000
C          C       0.38345   0.53400   0.50000   0.0000000000
C          C       0.46600   0.84945   0.50000   0.0000000000
C          C       0.15055   0.61655   0.50000   0.0000000000
C          C       0.61655   0.46600   0.50000   0.0000000000
C          C       0.53400   0.15055   0.50000   0.0000000000
C          C       0.84945   0.38345   0.50000   0.0000000000
C          C       0.44033   0.59914   0.50000   0.0000000000
C          C       0.40086   0.84119   0.50000   0.0000000000
C          C       0.15881   0.55967   0.50000   0.0000000000
C          C       0.55967   0.40086   0.50000   0.0000000000
C          C       0.59914   0.15881   0.50000   0.0000000000
C          C       0.84119   0.44033   0.50000   0.0000000000
H          H       0.45473   0.63117   0.50000   0.0000000000
H          H       0.36883   0.82356   0.50000   0.0000000000
H          H       0.17644   0.54527   0.50000   0.0000000000
H          H       0.54527   0.36883   0.50000   0.0000000000
H          H       0.63117   0.17644   0.50000   0.0000000000
H          H       0.82356   0.45473   0.50000   0.0000000000
H          H       0.49454   0.60189   0.50000   0.0000000000
H          H       0.39811   0.89265   0.50000   0.0000000000
H          H       0.10735   0.50546   0.50000   0.0000000000
H          H       0.50546   0.39811   0.50000   0.0000000000
H          H       0.60189   0.10735   0.50000   0.0000000000
H          H       0.89265   0.49454   0.50000   0.0000000000
C          C       0.46482   0.58223   0.50000   0.0000000000
C          C       0.41777   0.88259   0.50000   0.0000000000
C          C       0.11741   0.53518   0.50000   0.0000000000
C          C       0.53518   0.41777   0.50000   0.0000000000
C          C       0.58223   0.11741   0.50000   0.0000000000
C          C       0.88259   0.46482   0.50000   0.0000000000
C          C       0.40832   0.51752   0.50000   0.0000000000
C          C       0.48248   0.89080   0.50000   0.0000000000
C          C       0.10920   0.59168   0.50000   0.0000000000
C          C       0.59168   0.48248   0.50000   0.0000000000
C          C       0.51752   0.10920   0.50000   0.0000000000
C          C       0.89080   0.40832   0.50000   0.0000000000
H          H       0.39151   0.48570   0.50000   0.0000000000
H          H       0.51430   0.90581   0.50000   0.0000000000
H          H       0.09419   0.60849   0.50000   0.0000000000
H          H       0.60849   0.51430   0.50000   0.0000000000
H          H       0.48570   0.09419   0.50000   0.0000000000
H          H       0.90581   0.39151   0.50000   0.0000000000
C          C       0.45100   0.54143   0.50000   0.0000000000
C          C       0.45857   0.90957   0.50000   0.0000000000
C          C       0.09043   0.54900   0.50000   0.0000000000
C          C       0.54900   0.45857   0.50000   0.0000000000
C          C       0.54143   0.09043   0.50000   0.0000000000
C          C       0.90957   0.45100   0.50000   0.0000000000
C          C       0.47936   0.52370   0.50000   0.0000000000
C          C       0.47630   0.95566   0.50000   0.0000000000
C          C       0.04434   0.52064   0.50000   0.0000000000
C          C       0.52064   0.47630   0.50000   0.0000000000
C          C       0.52370   0.04434   0.50000   0.0000000000
C          C       0.95566   0.47936   0.50000   0.0000000000
H          H       0.42852   0.46567   0.50000   0.0000000000
H          H       0.53433   0.96285   0.50000   0.0000000000
H          H       0.03715   0.57148   0.50000   0.0000000000
H          H       0.57148   0.53433   0.50000   0.0000000000
H          H       0.46567   0.03715   0.50000   0.0000000000
H          H       0.96285   0.42852   0.50000   0.0000000000
C          C       0.45999   0.48154   0.50000   0.0000000000
C          C       0.51846   0.97845   0.50000   0.0000000000
C          C       0.02155   0.54001   0.50000   0.0000000000
C          C       0.54001   0.51846   0.50000   0.0000000000
C          C       0.48154   0.02155   0.50000   0.0000000000
C          C       0.97845   0.45999   0.50000   0.0000000000
C          C       0.52264   0.54332   0.50000   0.0000000000
C          C       0.45668   0.97932   0.50000   0.0000000000
C          C       0.02068   0.47736   0.50000   0.0000000000
C          C       0.47736   0.45668   0.50000   0.0000000000
C          C       0.54332   0.02068   0.50000   0.0000000000
C          C       0.97932   0.52264   0.50000   0.0000000000
C          C       0.55836   0.58735   0.50000   0.0000000000
C          C       0.41265   0.97101   0.50000   0.0000000000
C          C       0.02899   0.44164   0.50000   0.0000000000
C          C       0.44164   0.41265   0.50000   0.0000000000
C          C       0.58735   0.02899   0.50000   0.0000000000
C          C       0.97101   0.55836   0.50000   0.0000000000
H          H       0.57634   0.58922   0.60962   0.0000000000
H          H       0.41078   0.98712   0.60962   0.0000000000
H          H       0.01288   0.42366   0.60962   0.0000000000
H          H       0.42366   0.41078   0.60962   0.0000000000
H          H       0.58922   0.01288   0.60962   0.0000000000
H          H       0.98712   0.57634   0.60962   0.0000000000
H          H       0.42366   0.41078   0.89038   0.0000000000
H          H       0.58922   0.01288   0.89038   0.0000000000
H          H       0.98712   0.57634   0.89038   0.0000000000
H          H       0.57634   0.58922   0.89038   0.0000000000
H          H       0.41078   0.98712   0.89038   0.0000000000
H          H       0.01288   0.42366   0.89038   0.0000000000
S          S       0.56344   0.63688   0.50000   0.0000000000
S          S       0.36312   0.92656   0.50000   0.0000000000
S          S       0.07344   0.43656   0.50000   0.0000000000
S          S       0.43656   0.36312   0.50000   0.0000000000
S          S       0.63688   0.07344   0.50000   0.0000000000
S          S       0.92656   0.56344   0.50000   0.0000000000
C          C       0.61751   0.66494   0.50000   0.0000000000
C          C       0.33506   0.95257   0.50000   0.0000000000
C          C       0.04743   0.38249   0.50000   0.0000000000
C          C       0.38249   0.33506   0.50000   0.0000000000
C          C       0.66494   0.04743   0.50000   0.0000000000
C          C       0.95257   0.61751   0.50000   0.0000000000
H          H       0.62927   0.65755   0.61084   0.0000000000
H          H       0.34245   0.97172   0.61084   0.0000000000
H          H       0.02828   0.37073   0.61084   0.0000000000
H          H       0.37073   0.34245   0.61084   0.0000000000
H          H       0.65755   0.02828   0.61084   0.0000000000
H          H       0.97172   0.62927   0.61084   0.0000000000
H          H       0.37073   0.34245   0.88916   0.0000000000
H          H       0.65755   0.02828   0.88916   0.0000000000
H          H       0.97172   0.62927   0.88916   0.0000000000
H          H       0.62927   0.65755   0.88916   0.0000000000
H          H       0.34245   0.97172   0.88916   0.0000000000
H          H       0.02828   0.37073   0.88916   0.0000000000
C          C       0.63061   0.70894   0.50000   0.0000000000
C          C       0.29106   0.92167   0.50000   0.0000000000
C          C       0.07833   0.36939   0.50000   0.0000000000
C          C       0.36939   0.29106   0.50000   0.0000000000
C          C       0.70894   0.07833   0.50000   0.0000000000
C          C       0.92167   0.63061   0.50000   0.0000000000
H          H       0.61844   0.71616   0.60988   0.0000000000
H          H       0.28384   0.90228   0.60988   0.0000000000
H          H       0.09772   0.38156   0.60988   0.0000000000
H          H       0.38156   0.28384   0.60988   0.0000000000
H          H       0.71616   0.09772   0.60988   0.0000000000
H          H       0.90228   0.61844   0.60988   0.0000000000
H          H       0.38156   0.28384   0.89012   0.0000000000
H          H       0.71616   0.09772   0.89012   0.0000000000
H          H       0.90228   0.61844   0.89012   0.0000000000
H          H       0.61844   0.71616   0.89012   0.0000000000
H          H       0.28384   0.90228   0.89012   0.0000000000
H          H       0.09772   0.38156   0.89012   0.0000000000
H          H       0.66354   0.72730   0.50000   0.0000000000
H          H       0.27270   0.93624   0.50000   0.0000000000
H          H       0.06376   0.33646   0.50000   0.0000000000
H          H       0.33646   0.27270   0.50000   0.0000000000
H          H       0.72730   0.06376   0.50000   0.0000000000
H          H       0.93624   0.66354   0.50000   0.0000000000
