data_crystal
 
_cell_length_a    32.35000
_cell_length_b    18.36000
_cell_length_c    7.64000
_cell_angle_alpha 90.00000
_cell_angle_beta  90.00000
_cell_angle_gamma 122.04000
 
_symmetry_space_group_name_Hall 'P 1'
_symmetry_space_group_name_H-M  'P 1'
 
loop_
_symmetry_equiv_pos_as_xyz
 'x,y,z' 
 
loop_
_atom_site_label
_atom_site_type_symbol
_atom_site_fract_x
_atom_site_fract_y
_atom_site_fract_z
_atom_site_charge
H          H       0.17119   0.09728   0.39049   0.0000000000
H          H       0.24511   0.09971   0.40510   0.0000000000
H          H       0.32448   0.36394   0.22376   0.0000000000
H          H       0.25274   0.36759   0.24799   0.0000000000
H          H       0.22994   0.38629   0.52351   0.0000000000
H          H       0.24724   0.52995   0.48306   0.0000000000
H          H       0.12371   0.43188   0.13255   0.0000000000
H          H       0.11126   0.29025   0.15352   0.0000000000
H          H       0.06750   0.20882   0.32050   0.0000000000
H          H      -0.00696   0.08844   0.41539   0.0000000000
H          H       0.07014  -0.01010   0.68800   0.0000000000
H          H       0.14633   0.11581   0.60652   0.0000000000
H          H       0.17178   0.58968   0.20020   0.0000000000
H          H       0.30262   0.10415   0.28419   0.0000000000
H          H       0.45774   0.35813   0.47186   0.0000000000
H          H       0.44829   0.11479   0.30416   0.0000000000
H          H       0.51711   0.10852   0.39960   0.0000000000
H          H       0.56455   0.32992   0.73016   0.0000000000
H          H       0.49552   0.33417   0.64772   0.0000000000
H          H       0.49688   0.04890   0.64633   0.0000000000
H          H       0.48271  -0.09047   0.67013   0.0000000000
H          H       0.63687   0.01466   0.73893   0.0000000000
H          H       0.65265   0.15716   0.71174   0.0000000000
H          H       0.66275   0.22294   0.45711   0.0000000000
H          H       0.74657   0.34397   0.46163   0.0000000000
H          H       0.70472   0.47877   0.81276   0.0000000000
H          H       0.62368   0.35409   0.82937   0.0000000000
H          H       0.35863   0.40000   0.46395   0.0000000000
H          H       0.80913   0.48730   0.54899   0.0000000000
H          H       0.52702   0.58400   0.49552   0.0000000000
H          H       0.55940   0.73154   0.58944   0.0000000000
H          H       0.41209   0.67267   0.67225   0.0000000000
H          H       0.37971   0.52514   0.57775   0.0000000000
H          H       0.32747   0.75925   0.44445   0.0000000000
H          H       0.36716   0.91495   0.43146   0.0000000000
H          H       0.23866   0.88572   0.18269   0.0000000000
H          H       0.19891   0.72976   0.19529   0.0000000000
H          H       0.88354   0.59090   0.61146   0.0000000000
H          H       0.96023   0.72896   0.59273   0.0000000000
H          H       0.88833   0.85710   0.77802   0.0000000000
H          H       0.81130   0.71872   0.79700   0.0000000000
H          H       0.38632   1.04746   0.47047   0.0000000000
H          H       0.58097   0.85494   0.72120   0.0000000000
H          H       0.94466   0.95329   0.56530   0.0000000000
C          C       0.16817  -2.67548  -0.15254   0.0000000000
C          C       0.11578  -2.82853  -0.06221   0.0000000000
C          C       0.20467  -2.76440  -0.15565   0.0000000000
C          C       0.20489  -2.84021  -0.13070   0.0000000000
C          C       0.24740  -2.84074  -0.13479   0.0000000000
C          C       0.29353  -2.76591  -0.17515   0.0000000000
C          C       0.29133  -2.69450  -0.23021   0.0000000000
C          C       0.24936  -2.69294  -0.21421   0.0000000000
C          C       0.20629  -2.60437  -0.06413   0.0000000000
C          C       0.21593  -2.52208  -0.08818   0.0000000000
C          C       0.18676  -2.50553  -0.19567   0.0000000000
C          C       0.14730  -2.57682  -0.27762   0.0000000000
C          C       0.13891  -2.65911  -0.26107   0.0000000000
C          C       0.07063  -2.83747  -0.09982   0.0000000000
C          C       0.02663  -2.90801  -0.04375   0.0000000000
C          C       0.02411  -2.97478   0.05328   0.0000000000
C          C       0.06893  -2.96296   0.10305   0.0000000000
C          C       0.11307  -2.89152   0.05070   0.0000000000
C          C       0.19772  -2.41914  -0.22391   0.0000000000
C          C       0.33848  -2.76281  -0.15107   0.0000000000
C          C       0.33725  -2.84032  -0.16981   0.0000000000
C          C       0.37401  -2.85207  -0.11872   0.0000000000
C          C       0.41982  -2.77710  -0.07068   0.0000000000
C          C       0.42233  -2.69809  -0.06542   0.0000000000
C          C       0.38351  -2.68840  -0.09234   0.0000000000
C          C       0.46283  -2.77778  -0.02655   0.0000000000
C          C       0.47233  -2.83914  -0.09580   0.0000000000
C          C       0.51222  -2.84187  -0.04406   0.0000000000
C          C       0.54686  -2.78415   0.07688   0.0000000000
C          C       0.54032  -2.71805   0.13401   0.0000000000
C          C       0.49981  -2.71562   0.08650   0.0000000000
C          C       0.63500  -2.72189   0.13775   0.0000000000
C          C       0.57703  -2.88089   0.15956   0.0000000000
C          C       0.52957  -2.95490   0.15748   0.0000000000
C          C       0.52088  -3.03682   0.17715   0.0000000000
C          C       0.55860  -3.05182   0.20135   0.0000000000
C          C       0.60556  -2.97864   0.21488   0.0000000000
C          C       0.61462  -2.89600   0.19611   0.0000000000
C          C       0.67198  -2.72140   0.03990   0.0000000000
C          C       0.71976  -2.65173   0.04197   0.0000000000
C          C       0.73345  -2.57662   0.13543   0.0000000000
C          C       0.69648  -2.57691   0.23189   0.0000000000
C          C       0.64893  -2.64756   0.23582   0.0000000000
C          C       0.39072  -2.60479  -0.05403   0.0000000000
C          C       0.78349  -2.50476   0.12901   0.0000000000
C          C       0.26009  -2.26782  -0.17791   0.0000000000
C          C       0.45102  -2.45683   0.02756   0.0000000000
C          C       0.84079  -2.35633   0.20348   0.0000000000
C          C       0.50140  -2.39694   0.03517   0.0000000000
C          C       0.51972  -2.31346   0.08979   0.0000000000
C          C       0.48819  -2.28634   0.14017   0.0000000000
C          C       0.43777  -2.34657   0.13473   0.0000000000
C          C       0.41943  -2.43012   0.08002   0.0000000000
C          C       0.30762  -2.21336  -0.11425   0.0000000000
C          C       0.33011  -2.12502  -0.12164   0.0000000000
C          C       0.30571  -2.08745  -0.19320   0.0000000000
C          C       0.25851  -2.14190  -0.25960   0.0000000000
C          C       0.23601  -2.23026  -0.25214   0.0000000000
C          C       0.88388  -2.35111   0.14951   0.0000000000
C          C       0.92759  -2.27277   0.13957   0.0000000000
C          C       0.93038  -2.19589   0.18160   0.0000000000
C          C       0.88770  -2.20132   0.24116   0.0000000000
C          C       0.84407  -2.27972   0.25231   0.0000000000
C          C       0.36375  -1.93923  -0.11497   0.0000000000
C          C       0.54935  -2.13792   0.21198   0.0000000000
C          C       0.97704  -2.04902   0.09883   0.0000000000
N          N       0.16189  -2.75852  -0.12956   0.0000000000
N          N       0.58594  -2.79524   0.13275   0.0000000000
N          N       0.23881  -2.35659  -0.16425   0.0000000000
N          N       0.43469  -2.54003  -0.03044   0.0000000000
N          N       0.79528  -2.43388   0.20823   0.0000000000
N          N       0.32607  -1.99876  -0.19858   0.0000000000
N          N       0.50504  -2.20138   0.18693   0.0000000000
N          N       0.97454  -2.11716   0.15945   0.0000000000
H          H       0.17119   0.09728   0.89049   0.0000000000
H          H       0.24511   0.09971   0.90511   0.0000000000
H          H       0.32448   0.36394   0.72376   0.0000000000
H          H       0.25274   0.36759   0.74799   0.0000000000
H          H       0.22994   0.38629   1.02351   0.0000000000
H          H       0.24724   0.52995   0.98306   0.0000000000
H          H       0.12371   0.43188   0.63255   0.0000000000
H          H       0.11126   0.29025   0.65352   0.0000000000
H          H       0.06750   0.20882   0.82050   0.0000000000
H          H      -0.00696   0.08844   0.91539   0.0000000000
H          H       0.07014  -0.01010   1.18800   0.0000000000
H          H       0.14633   0.11581   1.10652   0.0000000000
H          H       0.17178   0.58968   0.70020   0.0000000000
H          H       0.30262   0.10415   0.78419   0.0000000000
H          H       0.45774   0.35813   0.97186   0.0000000000
H          H       0.44829   0.11479   0.80416   0.0000000000
H          H       0.51711   0.10852   0.89960   0.0000000000
H          H       0.56455   0.32992   1.23016   0.0000000000
H          H       0.49552   0.33417   1.14772   0.0000000000
H          H       0.49688   0.04890   1.14633   0.0000000000
H          H       0.48271  -0.09047   1.17013   0.0000000000
H          H       0.63687   0.01466   1.23893   0.0000000000
H          H       0.65265   0.15716   1.21173   0.0000000000
H          H       0.66275   0.22294   0.95711   0.0000000000
H          H       0.74657   0.34397   0.96163   0.0000000000
H          H       0.70472   0.47877   1.31276   0.0000000000
H          H       0.62368   0.35409   1.32937   0.0000000000
H          H       0.35863   0.40000   0.96395   0.0000000000
H          H       0.80913   0.48730   1.04899   0.0000000000
H          H       0.52702   0.58400   0.99552   0.0000000000
H          H       0.55940   0.73154   1.08944   0.0000000000
H          H       0.41209   0.67267   1.17225   0.0000000000
H          H       0.37971   0.52514   1.07775   0.0000000000
H          H       0.32747   0.75925   0.94445   0.0000000000
H          H       0.36716   0.91495   0.93146   0.0000000000
H          H       0.23866   0.88572   0.68269   0.0000000000
H          H       0.19891   0.72976   0.69529   0.0000000000
H          H       0.88354   0.59090   1.11146   0.0000000000
H          H       0.96023   0.72896   1.09273   0.0000000000
H          H       0.88833   0.85710   1.27802   0.0000000000
H          H       0.81130   0.71872   1.29700   0.0000000000
H          H       0.38632   1.04746   0.97047   0.0000000000
H          H       0.58097   0.85494   1.22120   0.0000000000
H          H       0.94466   0.95329   1.06530   0.0000000000
C          C       0.16817  -2.67548   0.34746   0.0000000000
C          C       0.11578  -2.82853   0.43779   0.0000000000
C          C       0.20467  -2.76440   0.34435   0.0000000000
C          C       0.20489  -2.84021   0.36930   0.0000000000
C          C       0.24740  -2.84074   0.36521   0.0000000000
C          C       0.29353  -2.76591   0.32485   0.0000000000
C          C       0.29133  -2.69450   0.26979   0.0000000000
C          C       0.24936  -2.69294   0.28579   0.0000000000
C          C       0.20629  -2.60437   0.43588   0.0000000000
C          C       0.21593  -2.52208   0.41182   0.0000000000
C          C       0.18676  -2.50553   0.30433   0.0000000000
C          C       0.14730  -2.57682   0.22238   0.0000000000
C          C       0.13891  -2.65911   0.23893   0.0000000000
C          C       0.07063  -2.83747   0.40018   0.0000000000
C          C       0.02663  -2.90801   0.45624   0.0000000000
C          C       0.02411  -2.97478   0.55327   0.0000000000
C          C       0.06893  -2.96296   0.60305   0.0000000000
C          C       0.11307  -2.89152   0.55071   0.0000000000
C          C       0.19772  -2.41914   0.27608   0.0000000000
C          C       0.33848  -2.76281   0.34893   0.0000000000
C          C       0.33725  -2.84032   0.33019   0.0000000000
C          C       0.37401  -2.85207   0.38127   0.0000000000
C          C       0.41982  -2.77710   0.42933   0.0000000000
C          C       0.42233  -2.69809   0.43458   0.0000000000
C          C       0.38351  -2.68840   0.40765   0.0000000000
C          C       0.46283  -2.77778   0.47345   0.0000000000
C          C       0.47233  -2.83914   0.40420   0.0000000000
C          C       0.51222  -2.84187   0.45594   0.0000000000
C          C       0.54686  -2.78415   0.57688   0.0000000000
C          C       0.54032  -2.71805   0.63401   0.0000000000
C          C       0.49981  -2.71562   0.58650   0.0000000000
C          C       0.63500  -2.72189   0.63775   0.0000000000
C          C       0.57703  -2.88089   0.65956   0.0000000000
C          C       0.52957  -2.95490   0.65747   0.0000000000
C          C       0.52088  -3.03682   0.67715   0.0000000000
C          C       0.55860  -3.05182   0.70135   0.0000000000
C          C       0.60556  -2.97864   0.71488   0.0000000000
C          C       0.61462  -2.89600   0.69610   0.0000000000
C          C       0.67198  -2.72140   0.53990   0.0000000000
C          C       0.71976  -2.65173   0.54197   0.0000000000
C          C       0.73345  -2.57662   0.63543   0.0000000000
C          C       0.69648  -2.57691   0.73189   0.0000000000
C          C       0.64893  -2.64756   0.73582   0.0000000000
C          C       0.39072  -2.60479   0.44597   0.0000000000
C          C       0.78349  -2.50476   0.62901   0.0000000000
C          C       0.26009  -2.26782   0.32209   0.0000000000
C          C       0.45102  -2.45683   0.52756   0.0000000000
C          C       0.84079  -2.35633   0.70348   0.0000000000
C          C       0.50140  -2.39694   0.53517   0.0000000000
C          C       0.51972  -2.31346   0.58979   0.0000000000
C          C       0.48819  -2.28634   0.64017   0.0000000000
C          C       0.43777  -2.34657   0.63473   0.0000000000
C          C       0.41943  -2.43012   0.58002   0.0000000000
C          C       0.30762  -2.21336   0.38575   0.0000000000
C          C       0.33011  -2.12502   0.37836   0.0000000000
C          C       0.30571  -2.08745   0.30680   0.0000000000
C          C       0.25851  -2.14190   0.24040   0.0000000000
C          C       0.23601  -2.23026   0.24786   0.0000000000
C          C       0.88388  -2.35111   0.64951   0.0000000000
C          C       0.92759  -2.27277   0.63958   0.0000000000
C          C       0.93038  -2.19589   0.68161   0.0000000000
C          C       0.88770  -2.20132   0.74116   0.0000000000
C          C       0.84407  -2.27972   0.75230   0.0000000000
C          C       0.36375  -1.93923   0.38502   0.0000000000
C          C       0.54935  -2.13792   0.71198   0.0000000000
C          C       0.97704  -2.04902   0.59884   0.0000000000
N          N       0.16189  -2.75852   0.37044   0.0000000000
N          N       0.58594  -2.79524   0.63275   0.0000000000
N          N       0.23881  -2.35659   0.33575   0.0000000000
N          N       0.43469  -2.54003   0.46956   0.0000000000
N          N       0.79528  -2.43388   0.70823   0.0000000000
N          N       0.32607  -1.99876   0.30142   0.0000000000
N          N       0.50504  -2.20138   0.68693   0.0000000000
N          N       0.97454  -2.11716   0.65945   0.0000000000
