data_crystal

_cell_length_a    37.72360
_cell_length_b    37.72360
_cell_length_c    7.24680
_cell_angle_alpha 90.00000
_cell_angle_beta  90.00000
_cell_angle_gamma 120.00000

_space_group_name_Hall 'P 1'
_space_group_name_H-M_alt  'P 1'

loop_
_symmetry_equiv_pos_as_xyz
'x,y,z' 

loop_
_atom_site_label
_atom_site_type_symbol
_atom_site_fract_x
_atom_site_fract_y
_atom_site_fract_z
C          C       0.29002   0.64337   0.25865 
C          C       0.35663   0.64665   0.25865 
C          C       0.35335   0.70998   0.25865 
C          C       0.70998   0.35663   0.25865 
C          C       0.64337   0.35335   0.25865 
C          C       0.64665   0.29002   0.25865 
C          C       0.31360   0.62398   0.25876 
C          C       0.37602   0.68962   0.25876 
C          C       0.31038   0.68640   0.25876 
C          C       0.68640   0.37602   0.25876 
C          C       0.62398   0.31038   0.25876 
C          C       0.68962   0.31360   0.25876 
C          C       0.24429   0.61865   0.25967 
C          C       0.38135   0.62564   0.25967 
C          C       0.37436   0.75571   0.25967 
C          C       0.75571   0.38135   0.25967 
C          C       0.61865   0.37436   0.25967 
C          C       0.62564   0.24429   0.25967 
C          C       0.36598   0.58611   0.18640 
C          C       0.41389   0.77987   0.18640 
C          C       0.22013   0.63402   0.18640 
C          C       0.63402   0.41389   0.18640 
C          C       0.58611   0.22013   0.18640 
C          C       0.77987   0.36598   0.18640 
C          C       0.38930   0.56672   0.18928 
C          C       0.43328   0.82258   0.18928 
C          C       0.17742   0.61070   0.18928 
C          C       0.61070   0.43328   0.18928 
C          C       0.56672   0.17742   0.18928 
C          C       0.82258   0.38930   0.18928 
C          C       0.42917   0.58629   0.26308 
C          C       0.41371   0.84288   0.26308 
C          C       0.15712   0.57083   0.26308 
C          C       0.57083   0.41371   0.26308 
C          C       0.58629   0.15712   0.26308 
C          C       0.84288   0.42917   0.26308 
C          C       0.44609   0.62602   0.33291 
C          C       0.37398   0.82007   0.33291 
C          C       0.17993   0.55391   0.33291 
C          C       0.55391   0.37398   0.33291 
C          C       0.62602   0.17993   0.33291 
C          C       0.82007   0.44609   0.33291 
C          C       0.42349   0.64600   0.33660 
C          C       0.35400   0.77749   0.33660 
C          C       0.22251   0.57651   0.33660 
C          C       0.57651   0.35400   0.33660 
C          C       0.64600   0.22251   0.33660 
C          C       0.77749   0.42349   0.33660 
N          N       0.45405   0.56733   0.26467 
N          N       0.43267   0.88672   0.26467 
N          N       0.11328   0.54595   0.26467 
N          N       0.54595   0.43267   0.26467 
N          N       0.56733   0.11328   0.26467 
N          N       0.88672   0.45405   0.26467 
C          C       0.44087   0.52832   0.25355 
C          C       0.47168   0.91255   0.25355 
C          C       0.08745   0.55913   0.25355 
C          C       0.55913   0.47168   0.25355 
C          C       0.52832   0.08745   0.25355 
C          C       0.91255   0.44087   0.25355 
C          C       0.47007   0.51279   0.25438 
C          C       0.48721   0.95728   0.25438 
C          C       0.04272   0.52993   0.25438 
C          C       0.52993   0.48721   0.25438 
C          C       0.51279   0.04272   0.25438 
C          C       0.95728   0.47007   0.25438 
C          C       0.45635   0.47052   0.25300 
C          C       0.52948   0.98583   0.25300 
C          C       0.01417   0.54365   0.25300 
C          C       0.54365   0.52948   0.25300 
C          C       0.47052   0.01417   0.25300 
C          C       0.98583   0.45635   0.25300 
C          C       0.48533   0.45754   0.25583 
C          C       0.54246   0.02779   0.25583 
C          C       0.97221   0.51467   0.25583 
C          C       0.51467   0.54246   0.25583 
C          C       0.45754   0.97221   0.25583 
C          C       0.02779   0.48533   0.25583 
C          C       0.41076   0.44019   0.24927 
C          C       0.55981   0.97057   0.24927 
C          C       0.02943   0.58924   0.24927 
C          C       0.58924   0.55981   0.24927 
C          C       0.44019   0.02943   0.24927 
C          C       0.97057   0.41076   0.24927 
C          C       0.60171   0.60491   0.24253 
C          C       0.39829   0.39509   0.24253 
H          H       0.29835   0.59103   0.25921 
H          H       0.40897   0.70732   0.25921 
H          H       0.29268   0.70165   0.25921 
H          H       0.70165   0.40897   0.25921 
H          H       0.59103   0.29268   0.25921 
H          H       0.70732   0.29835   0.25921 
H          H       0.33633   0.57023   0.12041 
H          H       0.42977   0.76610   0.12041 
H          H       0.23390   0.66367   0.12041 
H          H       0.66367   0.42977   0.12041 
H          H       0.57023   0.23390   0.12041 
H          H       0.76610   0.33633   0.12041 
H          H       0.37634   0.53678   0.12674 
H          H       0.46322   0.83956   0.12674 
H          H       0.16044   0.62366   0.12674 
H          H       0.62366   0.46322   0.12674 
H          H       0.53678   0.16044   0.12674 
H          H       0.83956   0.37634   0.12674 
H          H       0.47673   0.64113   0.38996 
H          H       0.35887   0.83560   0.38996 
H          H       0.16440   0.52327   0.38996 
H          H       0.52327   0.35887   0.38996 
H          H       0.64113   0.16440   0.38996 
H          H       0.83560   0.47673   0.38996 
H          H       0.43679   0.67566   0.40220 
H          H       0.32434   0.76113   0.40220 
H          H       0.23887   0.56321   0.40220 
H          H       0.56321   0.32434   0.40220 
H          H       0.67566   0.23887   0.40220 
H          H       0.76113   0.43679   0.40220 
H          H       0.40838   0.50682   0.24868 
H          H       0.49318   0.90156   0.24868 
H          H       0.09844   0.59162   0.24868 
H          H       0.59162   0.49318   0.24868 
H          H       0.50682   0.09844   0.24868 
H          H       0.90156   0.40838   0.24868 
H          H       0.47544   0.42528   0.25840 
H          H       0.57472   0.05016   0.25840 
H          H       0.94984   0.52456   0.25840 
H          H       0.52456   0.57472   0.25840 
H          H       0.42528   0.94984   0.25840 
H          H       0.05016   0.47544   0.25840 
H          H       0.63229   0.62703   0.23976 
H          H       0.57958   0.61336   0.24075 
H          H       0.61064   0.55039   0.25119 
H          H       0.36771   0.37297   0.23976 
H          H       0.42042   0.38664   0.24075 
H          H       0.38936   0.44961   0.25119 
C          C       0.01090   0.40319   0.24927 
C          C       0.39671   0.99438   0.24927 
H          H       0.44829   0.05992   0.24702 
H          H       0.39094   0.96460   0.25163 
H          H       0.37270   0.00014   0.24691 
H          H       0.94023   0.38798   0.24707 
H          H       0.04028   0.42792   0.25160 
H          H       0.00626   0.37381   0.24694 
C          C       0.60974   0.00526   0.24647 
H          H       0.63115   0.99585   0.24391 
H          H       0.61916   0.03608   0.24730 
H          H       0.55286   0.93963   0.24684 
C          C       0.99464   0.61128   0.30103 
H          H       0.05975   0.60909   0.21757 
H          H       0.96423   0.59196   0.33303 
H          H       0.00625   0.64251   0.29701 
C          C       0.29002   0.64337   0.75865 
C          C       0.35663   0.64665   0.75865 
C          C       0.35335   0.70998   0.75865 
C          C       0.70998   0.35663   0.75865 
C          C       0.64337   0.35335   0.75865 
C          C       0.64665   0.29002   0.75865 
C          C       0.31360   0.62398   0.75875 
C          C       0.37602   0.68962   0.75875 
C          C       0.31038   0.68640   0.75875 
C          C       0.68640   0.37602   0.75875 
C          C       0.62398   0.31038   0.75875 
C          C       0.68962   0.31360   0.75875 
C          C       0.24429   0.61865   0.75967 
C          C       0.38135   0.62564   0.75967 
C          C       0.37436   0.75571   0.75967 
C          C       0.75571   0.38135   0.75967 
C          C       0.61865   0.37436   0.75967 
C          C       0.62564   0.24429   0.75967 
C          C       0.36598   0.58611   0.68640 
C          C       0.41389   0.77987   0.68640 
C          C       0.22013   0.63402   0.68640 
C          C       0.63402   0.41389   0.68640 
C          C       0.58611   0.22013   0.68640 
C          C       0.77987   0.36598   0.68640 
C          C       0.38930   0.56672   0.68928 
C          C       0.43328   0.82258   0.68928 
C          C       0.17742   0.61070   0.68928 
C          C       0.61070   0.43328   0.68928 
C          C       0.56672   0.17742   0.68928 
C          C       0.82258   0.38930   0.68928 
C          C       0.42917   0.58629   0.76307 
C          C       0.41371   0.84288   0.76307 
C          C       0.15712   0.57083   0.76307 
C          C       0.57083   0.41371   0.76307 
C          C       0.58629   0.15712   0.76307 
C          C       0.84288   0.42917   0.76307 
C          C       0.44609   0.62602   0.83291 
C          C       0.37398   0.82007   0.83291 
C          C       0.17993   0.55391   0.83291 
C          C       0.55391   0.37398   0.83291 
C          C       0.62602   0.17993   0.83291 
C          C       0.82007   0.44609   0.83291 
C          C       0.42349   0.64600   0.83660 
C          C       0.35400   0.77749   0.83660 
C          C       0.22251   0.57651   0.83660 
C          C       0.57651   0.35400   0.83660 
C          C       0.64600   0.22251   0.83660 
C          C       0.77749   0.42349   0.83660 
N          N       0.45405   0.56733   0.76467 
N          N       0.43267   0.88672   0.76467 
N          N       0.11328   0.54595   0.76467 
N          N       0.54595   0.43267   0.76467 
N          N       0.56733   0.11328   0.76467 
N          N       0.88672   0.45405   0.76467 
C          C       0.44087   0.52832   0.75355 
C          C       0.47168   0.91255   0.75355 
C          C       0.08745   0.55913   0.75355 
C          C       0.55913   0.47168   0.75355 
C          C       0.52832   0.08745   0.75355 
C          C       0.91255   0.44087   0.75355 
C          C       0.47007   0.51279   0.75438 
C          C       0.48721   0.95728   0.75438 
C          C       0.04272   0.52993   0.75438 
C          C       0.52993   0.48721   0.75438 
C          C       0.51279   0.04272   0.75438 
C          C       0.95728   0.47007   0.75438 
C          C       0.45635   0.47052   0.75300 
C          C       0.52948   0.98583   0.75300 
C          C       0.01417   0.54365   0.75300 
C          C       0.54365   0.52948   0.75300 
C          C       0.47052   0.01417   0.75300 
C          C       0.98583   0.45635   0.75300 
C          C       0.48533   0.45754   0.75582 
C          C       0.54246   0.02779   0.75582 
C          C       0.97221   0.51467   0.75582 
C          C       0.51467   0.54246   0.75582 
C          C       0.45754   0.97221   0.75582 
C          C       0.02779   0.48533   0.75582 
C          C       0.41076   0.44019   0.74927 
C          C       0.55981   0.97057   0.74927 
C          C       0.02943   0.58924   0.74927 
C          C       0.58924   0.55981   0.74927 
C          C       0.44019   0.02943   0.74927 
C          C       0.97057   0.41076   0.74927 
C          C       0.60171   0.60491   0.74253 
C          C       0.39829   0.39509   0.74253 
H          H       0.29835   0.59103   0.75921 
H          H       0.40897   0.70732   0.75921 
H          H       0.29268   0.70165   0.75921 
H          H       0.70165   0.40897   0.75921 
H          H       0.59103   0.29268   0.75921 
H          H       0.70732   0.29835   0.75921 
H          H       0.33633   0.57023   0.62041 
H          H       0.42977   0.76610   0.62041 
H          H       0.23390   0.66367   0.62041 
H          H       0.66367   0.42977   0.62041 
H          H       0.57023   0.23390   0.62041 
H          H       0.76610   0.33633   0.62041 
H          H       0.37634   0.53678   0.62674 
H          H       0.46322   0.83956   0.62674 
H          H       0.16044   0.62366   0.62674 
H          H       0.62366   0.46322   0.62674 
H          H       0.53678   0.16044   0.62674 
H          H       0.83956   0.37634   0.62674 
H          H       0.47673   0.64113   0.88996 
H          H       0.35887   0.83560   0.88996 
H          H       0.16440   0.52327   0.88996 
H          H       0.52327   0.35887   0.88996 
H          H       0.64113   0.16440   0.88996 
H          H       0.83560   0.47673   0.88996 
H          H       0.43679   0.67566   0.90220 
H          H       0.32434   0.76113   0.90220 
H          H       0.23887   0.56321   0.90220 
H          H       0.56321   0.32434   0.90220 
H          H       0.67566   0.23887   0.90220 
H          H       0.76113   0.43679   0.90220 
H          H       0.40838   0.50682   0.74868 
H          H       0.49318   0.90156   0.74868 
H          H       0.09844   0.59162   0.74868 
H          H       0.59162   0.49318   0.74868 
H          H       0.50682   0.09844   0.74868 
H          H       0.90156   0.40838   0.74868 
H          H       0.47544   0.42528   0.75840 
H          H       0.57472   0.05016   0.75840 
H          H       0.94984   0.52456   0.75840 
H          H       0.52456   0.57472   0.75840 
H          H       0.42528   0.94984   0.75840 
H          H       0.05016   0.47544   0.75840 
H          H       0.63229   0.62703   0.73976 
H          H       0.57958   0.61336   0.74075 
H          H       0.61064   0.55039   0.75119 
H          H       0.36771   0.37297   0.73976 
H          H       0.42042   0.38664   0.74075 
H          H       0.38936   0.44961   0.75119 
C          C       0.01090   0.40319   0.74927 
C          C       0.39671   0.99438   0.74927 
H          H       0.44829   0.05992   0.74702 
H          H       0.39094   0.96460   0.75163 
H          H       0.37270   0.00014   0.74691 
H          H       0.94023   0.38798   0.74707 
H          H       0.04028   0.42792   0.75160 
H          H       0.00626   0.37381   0.74694 
C          C       0.60974   0.00526   0.74647 
H          H       0.63115   0.99585   0.74391 
H          H       0.61916   0.03608   0.74730 
H          H       0.55286   0.93963   0.74684 
C          C       0.99464   0.61128   0.80104 
H          H       0.05975   0.60909   0.71757 
H          H       0.96423   0.59196   0.83303 
H          H       0.00625   0.64251   0.79701 
