data_crystal

_cell_length_a    29.72780
_cell_length_b    29.72780
_cell_length_c    7.10320
_cell_angle_alpha 90.00000
_cell_angle_beta  90.00000
_cell_angle_gamma 120.00000

_space_group_name_Hall 'P 1'
_space_group_name_H-M_alt  'P 1'

loop_
_symmetry_equiv_pos_as_xyz
'x,y,z' 

loop_
_atom_site_label
_atom_site_type_symbol
_atom_site_fract_x
_atom_site_fract_y
_atom_site_fract_z
C          C       0.61310   0.31401   0.33193 
C          C       0.68599   0.29909   0.33193 
C          C       0.70091   0.38690   0.33193 
C          C       0.38690   0.68599   0.16807 
C          C       0.31401   0.70091   0.16807 
C          C       0.29909   0.61310   0.16807 
C          C       0.63200   0.27907   0.33311 
C          C       0.72093   0.35293   0.33311 
C          C       0.64707   0.36800   0.33311 
C          C       0.36800   0.72093   0.16688 
C          C       0.27907   0.64707   0.16688 
C          C       0.35293   0.63200   0.16688 
C          C       0.62541   0.40371   0.32962 
C          C       0.59629   0.22170   0.32962 
C          C       0.77830   0.37459   0.32962 
C          C       0.37459   0.59629   0.17037 
C          C       0.40371   0.77830   0.17037 
C          C       0.22170   0.62541   0.17037 
C          C       0.65453   0.45596   0.38664 
C          C       0.54404   0.19857   0.38664 
C          C       0.80143   0.34547   0.38664 
C          C       0.34547   0.54404   0.11336 
C          C       0.45596   0.80143   0.11336 
C          C       0.19857   0.65453   0.11336 
C          C       0.63235   0.48766   0.37849 
C          C       0.51234   0.14469   0.37849 
C          C       0.85531   0.36765   0.37849 
C          C       0.36765   0.51234   0.12151 
C          C       0.48766   0.85531   0.12151 
C          C       0.14469   0.63235   0.12151 
C          C       0.58112   0.46754   0.31682 
C          C       0.53246   0.11358   0.31682 
C          C       0.88642   0.41888   0.31682 
C          C       0.41888   0.53246   0.18318 
C          C       0.46754   0.88642   0.18318 
C          C       0.11358   0.58112   0.18318 
C          C       0.55294   0.41510   0.26397 
C          C       0.58490   0.13784   0.26397 
C          C       0.86216   0.44706   0.26397 
C          C       0.44706   0.58490   0.23603 
C          C       0.41510   0.86216   0.23603 
C          C       0.13784   0.55294   0.23603 
N          N       0.57552   0.38513   0.27121 
N          N       0.61487   0.19039   0.27121 
N          N       0.80961   0.42448   0.27121 
N          N       0.42448   0.61487   0.22879 
N          N       0.38513   0.80961   0.22879 
N          N       0.19039   0.57552   0.22879 
C          C       0.55812   0.50144   0.30923 
C          C       0.49856   0.05668   0.30923 
C          C       0.94332   0.44188   0.30923 
C          C       0.44188   0.49856   0.19077 
C          C       0.50144   0.94332   0.19077 
C          C       0.05668   0.55812   0.19077 
N          N       0.51075   0.48376   0.25357 
N          N       0.51624   0.02699   0.25357 
N          N       0.97301   0.48925   0.25357 
N          N       0.48925   0.51624   0.24643 
N          N       0.48376   0.97301   0.24643 
N          N       0.02699   0.51075   0.24643 
H          H       0.57180   0.29948   0.32640 
H          H       0.70052   0.27232   0.32640 
H          H       0.72768   0.42820   0.32640 
H          H       0.42820   0.70052   0.17359 
H          H       0.29948   0.72768   0.17359 
H          H       0.27232   0.57180   0.17359 
H          H       0.69351   0.47234   0.44132 
H          H       0.52766   0.22117   0.44132 
H          H       0.77883   0.30649   0.44132 
H          H       0.30649   0.52766   0.05867 
H          H       0.47234   0.77883   0.05867 
H          H       0.22117   0.69351   0.05867 
H          H       0.65503   0.52781   0.42276 
H          H       0.47219   0.12722   0.42276 
H          H       0.87278   0.34497   0.42276 
H          H       0.34497   0.47219   0.07724 
H          H       0.52781   0.87278   0.07724 
H          H       0.12722   0.65503   0.07724 
H          H       0.51320   0.39794   0.21566 
H          H       0.60206   0.11526   0.21566 
H          H       0.88474   0.48680   0.21566 
H          H       0.48680   0.60206   0.28434 
H          H       0.39794   0.88474   0.28434 
H          H       0.11526   0.51320   0.28434 
H          H       0.58133   0.54180   0.35113 
H          H       0.45820   0.03953   0.35113 
H          H       0.96047   0.41867   0.35113 
H          H       0.41867   0.45820   0.14886 
H          H       0.54180   0.96047   0.14886 
H          H       0.03953   0.58133   0.14886 
C          C       0.61310   0.31401   0.83193 
C          C       0.68599   0.29909   0.83193 
C          C       0.70091   0.38690   0.83193 
C          C       0.38690   0.68599   0.66807 
C          C       0.31401   0.70091   0.66807 
C          C       0.29909   0.61310   0.66807 
C          C       0.63200   0.27907   0.83311 
C          C       0.72093   0.35293   0.83311 
C          C       0.64707   0.36800   0.83311 
C          C       0.36800   0.72093   0.66688 
C          C       0.27907   0.64707   0.66688 
C          C       0.35293   0.63200   0.66688 
C          C       0.62541   0.40371   0.82962 
C          C       0.59629   0.22170   0.82962 
C          C       0.77830   0.37459   0.82962 
C          C       0.37459   0.59629   0.67037 
C          C       0.40371   0.77830   0.67037 
C          C       0.22170   0.62541   0.67037 
C          C       0.65453   0.45596   0.88664 
C          C       0.54404   0.19857   0.88664 
C          C       0.80143   0.34547   0.88664 
C          C       0.34547   0.54404   0.61336 
C          C       0.45596   0.80143   0.61336 
C          C       0.19857   0.65453   0.61336 
C          C       0.63235   0.48766   0.87849 
C          C       0.51234   0.14469   0.87849 
C          C       0.85531   0.36765   0.87849 
C          C       0.36765   0.51234   0.62151 
C          C       0.48766   0.85531   0.62151 
C          C       0.14469   0.63235   0.62151 
C          C       0.58112   0.46754   0.81682 
C          C       0.53246   0.11358   0.81682 
C          C       0.88642   0.41888   0.81682 
C          C       0.41888   0.53246   0.68318 
C          C       0.46754   0.88642   0.68318 
C          C       0.11358   0.58112   0.68318 
C          C       0.55294   0.41510   0.76397 
C          C       0.58490   0.13784   0.76397 
C          C       0.86216   0.44706   0.76397 
C          C       0.44706   0.58490   0.73603 
C          C       0.41510   0.86216   0.73603 
C          C       0.13784   0.55294   0.73603 
N          N       0.57552   0.38513   0.77121 
N          N       0.61487   0.19039   0.77121 
N          N       0.80961   0.42448   0.77121 
N          N       0.42448   0.61487   0.72879 
N          N       0.38513   0.80961   0.72879 
N          N       0.19039   0.57552   0.72879 
C          C       0.55812   0.50144   0.80923 
C          C       0.49856   0.05668   0.80923 
C          C       0.94332   0.44188   0.80923 
C          C       0.44188   0.49856   0.69077 
C          C       0.50144   0.94332   0.69077 
C          C       0.05668   0.55812   0.69077 
N          N       0.51075   0.48376   0.75357 
N          N       0.51624   0.02699   0.75357 
N          N       0.97301   0.48925   0.75357 
N          N       0.48925   0.51624   0.74643 
N          N       0.48376   0.97301   0.74643 
N          N       0.02699   0.51075   0.74643 
H          H       0.57180   0.29948   0.82640 
H          H       0.70052   0.27232   0.82640 
H          H       0.72768   0.42820   0.82640 
H          H       0.42820   0.70052   0.67359 
H          H       0.29948   0.72768   0.67359 
H          H       0.27232   0.57180   0.67359 
H          H       0.69351   0.47234   0.94132 
H          H       0.52766   0.22117   0.94132 
H          H       0.77883   0.30649   0.94132 
H          H       0.30649   0.52766   0.55867 
H          H       0.47234   0.77883   0.55867 
H          H       0.22117   0.69351   0.55867 
H          H       0.65503   0.52781   0.92276 
H          H       0.47219   0.12722   0.92276 
H          H       0.87278   0.34497   0.92276 
H          H       0.34497   0.47219   0.57724 
H          H       0.52781   0.87278   0.57724 
H          H       0.12722   0.65503   0.57724 
H          H       0.51320   0.39794   0.71566 
H          H       0.60206   0.11526   0.71566 
H          H       0.88474   0.48680   0.71566 
H          H       0.48680   0.60206   0.78433 
H          H       0.39794   0.88474   0.78433 
H          H       0.11526   0.51320   0.78433 
H          H       0.58133   0.54180   0.85113 
H          H       0.45820   0.03953   0.85113 
H          H       0.96047   0.41867   0.85113 
H          H       0.41867   0.45820   0.64887 
H          H       0.54180   0.96047   0.64887 
H          H       0.03953   0.58133   0.64887 
