data_crystal

_cell_length_a    16.17500
_cell_length_b    16.75000
_cell_length_c    16.00000
_cell_angle_alpha 90.00000
_cell_angle_beta  90.00000
_cell_angle_gamma 120.00000

_space_group_name_Hall 'P 1'
_space_group_name_H-M_alt 'P 1'

loop_
_symmetry_equiv_pos_as_xyz
 'x,y,z'

loop_
_atom_site_label
_atom_site_type_symbol
_atom_site_fract_x
_atom_site_fract_y
_atom_site_fract_z
C          C       0.76984   0.37645   0.00304
C          C       0.62355   0.39339   0.00304
C          C       0.60661   0.23016   0.00304
C          C       0.63798   0.17192   0.04013
C          C       0.82808   0.46606   0.04013
C          C       0.53394   0.36202   0.04013
C          C       0.58058   0.07265   0.03938
C          C       0.92735   0.50793   0.03938
C          C       0.49207   0.41942   0.03938
C          C       0.48990   0.02961   0.00218
C          C       0.97039   0.46029   0.00218
C          C       0.53971   0.51010   0.00218
C          C       0.45773   0.08696   0.46591
C          C       0.91304   0.37077   0.46591
C          C       0.62923   0.54227   0.46591
C          C       0.51575   0.18619   0.46578
C          C       0.81381   0.32956   0.46578
C          C       0.67044   0.48425   0.46578
N          N       0.42895   0.92815   0.00117
N          N       0.07185   0.50080   0.00117
N          N       0.49920   0.57105   0.00117
C          C       0.41006   0.54076   0.01733
C          C       0.45924   0.86930   0.01733
C          C       0.13070   0.58994   0.01733
C          C       0.37169   0.60579   0.01743
C          C       0.39421   0.76590   0.01743
C          C       0.23410   0.62831   0.01743
C          C       0.43223   0.70504   0.01751
C          C       0.29496   0.72719   0.01751
C          C       0.27281   0.56777   0.01751
C          C       0.43651   0.70978   0.26518
C          C       0.29022   0.72673   0.26518
C          C       0.27327   0.56349   0.26518
C          C       0.30465   0.50525   0.30228
C          C       0.49475   0.79940   0.30228
C          C       0.20060   0.69535   0.30228
C          C       0.24725   0.40598   0.30152
C          C       0.59402   0.84127   0.30152
C          C       0.15873   0.75275   0.30152
C          C       0.15657   0.36294   0.26432
C          C       0.63706   0.79363   0.26432
C          C       0.20637   0.84343   0.26432
C          C       0.12440   0.42029   0.22805
C          C       0.57971   0.70411   0.22805
C          C       0.29589   0.87560   0.22805
C          C       0.18242   0.51952   0.22792
C          C       0.48048   0.66290   0.22792
C          C       0.33710   0.81758   0.22792
N          N       0.09562   0.26148   0.26332
N          N       0.73852   0.83414   0.26332
N          N       0.16586   0.90438   0.26332
C          C       0.07673   0.87409   0.27948
C          C       0.12591   0.20264   0.27948
C          C       0.79736   0.92327   0.27948
C          C       0.03836   0.93912   0.27957
C          C       0.06088   0.09924   0.27957
C          C       0.90076   0.96164   0.27957
C          C       0.09890   0.03837   0.27966
C          C       0.96163   0.06053   0.27966
C          C       0.93947   0.90110   0.27966
H          H       0.71124   0.20664   0.07110
H          H       0.79336   0.50460   0.07110
H          H       0.49540   0.28876   0.07110
H          H       0.60734   0.02629   0.06905
H          H       0.97371   0.58105   0.06905
H          H       0.41895   0.39266   0.06905
H          H       0.38381   0.05281   0.43623
H          H       0.94719   0.33100   0.43623
H          H       0.66900   0.61619   0.43623
H          H       0.48959   0.23260   0.43519
H          H       0.76740   0.25699   0.43519
H          H       0.74301   0.51041   0.43519
H          H       0.36125   0.46177   0.03168
H          H       0.53823   0.89948   0.03168
H          H       0.10052   0.63875   0.03168
H          H       0.51296   0.73653   0.01766
H          H       0.26347   0.77643   0.01766
H          H       0.22357   0.48704   0.01766
H          H       0.27401   0.35962   0.33119
H          H       0.64038   0.91439   0.33119
H          H       0.08561   0.72599   0.33119
H          H       0.05049   0.38614   0.19837
H          H       0.61386   0.66435   0.19837
H          H       0.33565   0.94951   0.19837
H          H       0.15626   0.56593   0.19734
H          H       0.43407   0.59033   0.19734
H          H       0.40967   0.84374   0.19734
H          H       0.02792   0.79510   0.29383
H          H       0.20490   0.23282   0.29383
H          H       0.76718   0.97208   0.29383
H          H       0.17963   0.06986   0.27981
H          H       0.93014   0.10977   0.27981
H          H       0.89023   0.82037   0.27981
H          H       0.37792   0.53997   0.33323
H          H       0.46003   0.83795   0.33323
H          H       0.16205   0.62208   0.33323
N          N       0.66667   0.33333   0.00316
N          N       0.33333   0.66667   0.26531
C          C       0.76984   0.37645   0.50304
C          C       0.62355   0.39339   0.50304
C          C       0.60661   0.23016   0.50304
C          C       0.63798   0.17192   0.54014
C          C       0.82808   0.46606   0.54014
C          C       0.53394   0.36202   0.54014
C          C       0.58058   0.07265   0.53938
C          C       0.92735   0.50793   0.53938
C          C       0.49207   0.41942   0.53938
C          C       0.48990   0.02961   0.50218
C          C       0.97039   0.46029   0.50218
C          C       0.53971   0.51010   0.50218
C          C       0.45773   0.08696   0.96591
C          C       0.91304   0.37077   0.96591
C          C       0.62923   0.54227   0.96591
C          C       0.51575   0.18619   0.96578
C          C       0.81381   0.32956   0.96578
C          C       0.67044   0.48425   0.96578
N          N       0.42895   0.92815   0.50117
N          N       0.07185   0.50080   0.50117
N          N       0.49920   0.57105   0.50117
C          C       0.41006   0.54076   0.51733
C          C       0.45924   0.86930   0.51733
C          C       0.13070   0.58994   0.51733
C          C       0.37169   0.60579   0.51743
C          C       0.39421   0.76590   0.51743
C          C       0.23410   0.62831   0.51743
C          C       0.43223   0.70504   0.51751
C          C       0.29496   0.72719   0.51751
C          C       0.27281   0.56777   0.51751
C          C       0.43651   0.70978   0.76518
C          C       0.29022   0.72673   0.76518
C          C       0.27327   0.56349   0.76518
C          C       0.30465   0.50525   0.80228
C          C       0.49475   0.79940   0.80228
C          C       0.20060   0.69535   0.80228
C          C       0.24725   0.40598   0.80152
C          C       0.59402   0.84127   0.80152
C          C       0.15873   0.75275   0.80152
C          C       0.15657   0.36294   0.76432
C          C       0.63706   0.79363   0.76432
C          C       0.20637   0.84343   0.76432
C          C       0.12440   0.42029   0.72805
C          C       0.57971   0.70411   0.72805
C          C       0.29589   0.87560   0.72805
C          C       0.18242   0.51952   0.72792
C          C       0.48048   0.66290   0.72792
C          C       0.33710   0.81758   0.72792
N          N       0.09562   0.26148   0.76331
N          N       0.73852   0.83414   0.76331
N          N       0.16586   0.90438   0.76331
C          C       0.07673   0.87409   0.77948
C          C       0.12591   0.20264   0.77948
C          C       0.79736   0.92327   0.77948
C          C       0.03836   0.93912   0.77957
C          C       0.06088   0.09924   0.77957
C          C       0.90076   0.96164   0.77957
C          C       0.09890   0.03837   0.77966
C          C       0.96163   0.06053   0.77966
C          C       0.93947   0.90110   0.77966
H          H       0.71124   0.20664   0.57110
H          H       0.79336   0.50460   0.57110
H          H       0.49540   0.28876   0.57110
H          H       0.60734   0.02629   0.56905
H          H       0.97371   0.58105   0.56905
H          H       0.41895   0.39266   0.56905
H          H       0.38381   0.05281   0.93623
H          H       0.94719   0.33100   0.93623
H          H       0.66900   0.61619   0.93623
H          H       0.48959   0.23260   0.93519
H          H       0.76740   0.25699   0.93519
H          H       0.74301   0.51041   0.93519
H          H       0.36125   0.46177   0.53168
H          H       0.53823   0.89948   0.53168
H          H       0.10052   0.63875   0.53168
H          H       0.51296   0.73653   0.51765
H          H       0.26347   0.77643   0.51765
H          H       0.22357   0.48704   0.51765
H          H       0.27401   0.35962   0.83119
H          H       0.64038   0.91439   0.83119
H          H       0.08561   0.72599   0.83119
H          H       0.05049   0.38614   0.69837
H          H       0.61386   0.66435   0.69837
H          H       0.33565   0.94951   0.69837
H          H       0.15626   0.56593   0.69734
H          H       0.43407   0.59033   0.69734
H          H       0.40967   0.84374   0.69734
H          H       0.02792   0.79510   0.79383
H          H       0.20490   0.23282   0.79383
H          H       0.76718   0.97208   0.79383
H          H       0.17963   0.06986   0.77981
H          H       0.93014   0.10977   0.77981
H          H       0.89023   0.82037   0.77981
H          H       0.37792   0.53997   0.83323
H          H       0.46003   0.83795   0.83323
H          H       0.16205   0.62208   0.83323
N          N       0.66667   0.33333   0.50316
N          N       0.33333   0.66667   0.76531
