data_PCTF-4
_audit_creation_date              0000-00-00
_audit_creation_method            'LanYouShi'
_symmetry_space_group_name_H-M    'P1'
_cell_length_a                    4.2270999
_cell_length_b                    26.9780006
_cell_length_c                    27.2511005
_cell_angle_alpha                 60.3310013
_cell_angle_beta                  89.6976013
_cell_angle_gamma                 89.3889999
loop_
_atom_site_label
_atom_site_type_symbol
_atom_site_fract_x
_atom_site_fract_y
_atom_site_fract_z
_atom_site_U_iso_or_equiv
_atom_site_adp_type
_atom_site_occupancy
        C4          C -0.5254310  1.2348504 -1.3811655    0.00000       Uiso       1.00
        C4          C -0.5204924  1.1463941 -1.3807172    0.00000       Uiso       1.00
        C4          C -0.5240768  1.2338669 -1.4681348    0.00000       Uiso       1.00
        N4          N -0.5235270  1.2620822 -1.4384383    0.00000       Uiso       1.00
        N4          N -0.5239639  1.1759753 -1.4380088    0.00000       Uiso       1.00
        N4          N -0.5228460  1.1770265 -1.3535267    0.00000       Uiso       1.00
        C1          C -0.5296298  1.2652547 -1.3511773    0.00000       Uiso       1.00
        C2          C -0.5106565  1.0860161 -1.3503063    0.00000       Uiso       1.00
        C3          C -0.5236505  1.2636027 -1.5280132    0.00000       Uiso       1.00
        C4          C -0.4296907  1.3227080 -1.3767681    0.00000       Uiso       1.00
        C5          C -0.6038316  1.0533671 -1.3754398    0.00000       Uiso       1.00
        C6          C -0.5950484  1.2357365 -1.5590960    0.00000       Uiso       1.00
        C7          C -0.4512232  1.3224825 -1.5593070    0.00000       Uiso       1.00
        C8          C -0.4038107  1.0559366 -1.2935789    0.00000       Uiso       1.00
        C9          C -0.6339359  1.2392938 -1.2943350    0.00000       Uiso       1.00
       C10          C -0.6369154  1.2693332 -1.2643163    0.00000       Uiso       1.00
       C11          C -0.3879432  0.9959353 -1.2634614    0.00000       Uiso       1.00
       C12          C -0.4504794  1.3520886 -1.6187748    0.00000       Uiso       1.00
       C13          C -0.5952569  1.2653174 -1.6185908    0.00000       Uiso       1.00
       C14          C -0.5894971  0.9933211 -1.3452603    0.00000       Uiso       1.00
       C15          C -0.4310454  1.3527176 -1.3466994    0.00000       Uiso       1.00
       C16          C -0.4880816  1.5088471 -1.1064425    0.00000       Uiso       1.00
       C17          C -0.4509474  0.5975595 -1.1071020    0.00000       Uiso       1.00
       C18          C -0.6796018  1.4599546 -1.0885273    0.00000       Uiso       1.00
       C19          C -0.2620999  0.6290658 -1.0894451    0.00000       Uiso       1.00
       C20          C -0.6890795  1.4288005 -1.1174645    0.00000       Uiso       1.00
       C21          C -0.2575571  0.6891968 -1.1183319    0.00000       Uiso       1.00
       C22          C -0.5192707  1.4475127 -1.1681941    0.00000       Uiso       1.00
       C23          C -0.4312018  0.7207580 -1.1686975    0.00000       Uiso       1.00
       C24          C -0.3371783  1.4972742 -1.1884180    0.00000       Uiso       1.00
       C25          C -0.6053910  0.6906381 -1.1892544    0.00000       Uiso       1.00
       C26          C -0.3184677  1.5261763 -1.1574521    0.00000       Uiso       1.00
       C27          C -0.6193557  0.6307335 -1.1583370    0.00000       Uiso       1.00
        H1          H -0.8154488  1.4462988 -1.0533619    0.00000       Uiso       1.00
        H2          H -0.1261433  0.6078095 -1.0542974    0.00000       Uiso       1.00
        H3          H -0.8232951  1.3927095 -1.1016048    0.00000       Uiso       1.00
        H4          H -0.1242813  0.7097054 -1.1026905    0.00000       Uiso       1.00
        H5          H -0.2127388  1.5123370 -1.2253228    0.00000       Uiso       1.00
        H6          H -0.7272535  0.7121307 -1.2265090    0.00000       Uiso       1.00
        H7          H -0.1770378  1.5608652 -1.1729405    0.00000       Uiso       1.00
        H8          H -0.7568408  0.6112095 -1.1740173    0.00000       Uiso       1.00
       C28          C -0.3707042  1.4517246 -0.9842663    0.00000       Uiso       1.00
       C29          C -0.5823541  0.5344557 -0.9856166    0.00000       Uiso       1.00
       C30          C -0.3930010  1.4213020 -0.9248512    0.00000       Uiso       1.00
       C31          C -0.5794994  0.5057421 -0.9261462    0.00000       Uiso       1.00
        H9          H -0.2801590  1.4302593 -1.0031717    0.00000       Uiso       1.00
       H10          H -0.6631060  0.5754537 -1.0054307    0.00000       Uiso       1.00
       H11          H -0.3314752  1.3791709 -0.9056090    0.00000       Uiso       1.00
       H12          H -0.6380687  0.5296449 -0.9079189    0.00000       Uiso       1.00
       C32          C -0.5274539  1.4173282 -1.1980572    0.00000       Uiso       1.00
       C33          C -0.4353912  0.7808580 -1.1978673    0.00000       Uiso       1.00
       C34          C -0.3879755  1.3626105 -1.1757039    0.00000       Uiso       1.00
       C35          C -0.5783678  0.8113720 -1.1736194    0.00000       Uiso       1.00
       C36          C -0.3884200  1.3331891 -1.2057650    0.00000       Uiso       1.00
       C37          C -0.5933564  0.8715402 -1.2036307    0.00000       Uiso       1.00
       C38          C -0.5322465  1.3564299 -1.2595669    0.00000       Uiso       1.00
       C39          C -0.4623747  0.9032984 -1.2585670    0.00000       Uiso       1.00
       C40          C -0.6733373  1.4113538 -1.2821621    0.00000       Uiso       1.00
       C41          C -0.3136221  0.8721429 -1.2816032    0.00000       Uiso       1.00
       C42          C -0.6692860  1.4414737 -1.2520952    0.00000       Uiso       1.00
       C43          C -0.3025573  0.8126725 -1.2522957    0.00000       Uiso       1.00
       H13          H -0.6761881  0.7898822 -0.1340842    0.00000       Uiso       1.00
       H14          H -0.7041767  0.8921165 -0.1851462    0.00000       Uiso       1.00
       H15          H -0.7822013  1.4298133 -1.3208162    0.00000       Uiso       1.00
       H16          H -0.7716988  1.4812051 -1.2698753    0.00000       Uiso       1.00
       C44          C -0.6940005  0.4348822 -0.7998055    0.00000       Uiso       1.00
       C45          C -0.3378774  1.3648010 -0.7995711    0.00000       Uiso       1.00
       C46          C -0.6959628  0.4052147 -0.7407008    0.00000       Uiso       1.00
       C47          C -0.3467284  1.3338985 -0.7400393    0.00000       Uiso       1.00
       H17          H -0.1924904  1.3485625 -0.8182652    0.00000       Uiso       1.00
       H18          H -0.2157787  1.2970190 -0.7191651    0.00000       Uiso       1.00
        N1          N -0.4698102  0.5383375 -1.0766937    0.00000       Uiso       1.00
       C48          C -0.4739531  0.5092191 -1.0176814    0.00000       Uiso       1.00
       C49          C -0.4965200  0.4471651 -0.8929927    0.00000       Uiso       1.00
       C50          C -0.5119704  0.4165665 -0.8323459    0.00000       Uiso       1.00
       C51          C -0.5238336  0.3539139 -0.7091555    0.00000       Uiso       1.00
       H19          H -0.3516697  1.3431902 -1.4177167    0.00000       Uiso       1.00
       H20          H -0.6848401  1.0731707 -1.4161947    0.00000       Uiso       1.00
       H21          H -0.6498868  1.1932853 -1.5384963    0.00000       Uiso       1.00
       H22          H -0.3960951  1.3445501 -1.5389404    0.00000       Uiso       1.00
       H23          H -0.3327723  1.0776746 -1.2736673    0.00000       Uiso       1.00
       H24          H -0.7110972  1.1980075 -1.2741756    0.00000       Uiso       1.00
       C52          C -0.5338205  1.3264647 -1.2899081    0.00000       Uiso       1.00
       C53          C -0.4799442  0.9635766 -1.2888243    0.00000       Uiso       1.00
       C54          C -0.5235960  1.3240482 -1.6494237    0.00000       Uiso       1.00
       H25          H -0.3530558  1.3939352 -1.3665643    0.00000       Uiso       1.00
       H26          H -0.6611099  0.9712975 -1.3649029    0.00000       Uiso       1.00
       H27          H -0.7163659  1.2491182 -1.2233897    0.00000       Uiso       1.00
       H28          H -0.3052782  0.9760234 -1.2228220    0.00000       Uiso       1.00
       H29          H -0.6506601  1.2436209 -1.6393189    0.00000       Uiso       1.00
       H30          H -0.3941728  1.3945528 -1.6397635    0.00000       Uiso       1.00
        N2          N -0.8863390  0.4806124 -0.8182852    0.00000       Uiso       1.00
        S1          S -1.0514172  0.4914831 -0.7680212    0.00000       Uiso       1.00
        N3          N -0.8787875  0.4306652 -0.7190675    0.00000       Uiso       1.00
        N4          N -0.2370524  0.3332016 -0.1261609    0.00000       Uiso       1.00
        S2          S -0.0907339  0.2699927 -0.1146748    0.00000       Uiso       1.00
        N5          N -0.2344357  0.2830807 -0.1775891    0.00000       Uiso       1.00
        N6          N -0.1657538  0.8934548 -0.3315683    0.00000       Uiso       1.00
        S3          S -0.0148946  0.8430757 -0.3446440    0.00000       Uiso       1.00
        N7          N -0.1515643  0.7919686 -0.2817698    0.00000       Uiso       1.00
