data_crystal
 
_cell_length_a    4.22710
_cell_length_b    26.97800
_cell_length_c    27.25110
_cell_angle_alpha 60.33100
_cell_angle_beta  89.69760
_cell_angle_gamma 89.38900
 
_symmetry_space_group_name_Hall 'P 1'
_symmetry_space_group_name_H-M  'P 1'
 
loop_
_symmetry_equiv_pos_as_xyz
 'x,y,z' 
 
loop_
_atom_site_label
_atom_site_type_symbol
_atom_site_fract_x
_atom_site_fract_y
_atom_site_fract_z
_atom_site_charge
C          C      -0.52543   1.23485  -1.38117   0.0000000000
C          C      -0.52049   1.14639  -1.38072   0.0000000000
C          C      -0.52408   1.23387  -1.46813   0.0000000000
N          N      -0.52353   1.26208  -1.43844   0.0000000000
N          N      -0.52396   1.17598  -1.43801   0.0000000000
N          N      -0.52285   1.17703  -1.35353   0.0000000000
C          C      -0.52963   1.26525  -1.35118   0.0000000000
C          C      -0.51066   1.08602  -1.35031   0.0000000000
C          C      -0.52365   1.26360  -1.52801   0.0000000000
C          C      -0.42969   1.32271  -1.37677   0.0000000000
C          C      -0.60383   1.05337  -1.37544   0.0000000000
C          C      -0.59505   1.23574  -1.55910   0.0000000000
C          C      -0.45122   1.32248  -1.55931   0.0000000000
C          C      -0.40381   1.05594  -1.29358   0.0000000000
C          C      -0.63394   1.23929  -1.29434   0.0000000000
C          C      -0.63692   1.26933  -1.26432   0.0000000000
C          C      -0.38794   0.99594  -1.26346   0.0000000000
C          C      -0.45048   1.35209  -1.61877   0.0000000000
C          C      -0.59526   1.26532  -1.61859   0.0000000000
C          C      -0.58950   0.99332  -1.34526   0.0000000000
C          C      -0.43105   1.35272  -1.34670   0.0000000000
C          C      -0.48808   1.50885  -1.10644   0.0000000000
C          C      -0.45095   0.59756  -1.10710   0.0000000000
C          C      -0.67960   1.45995  -1.08853   0.0000000000
C          C      -0.26210   0.62907  -1.08945   0.0000000000
C          C      -0.68908   1.42880  -1.11746   0.0000000000
C          C      -0.25756   0.68920  -1.11833   0.0000000000
C          C      -0.51927   1.44751  -1.16819   0.0000000000
C          C      -0.43120   0.72076  -1.16870   0.0000000000
C          C      -0.33718   1.49727  -1.18842   0.0000000000
C          C      -0.60539   0.69064  -1.18925   0.0000000000
C          C      -0.31847   1.52618  -1.15745   0.0000000000
C          C      -0.61936   0.63073  -1.15834   0.0000000000
H          H      -0.81545   1.44630  -1.05336   0.0000000000
H          H      -0.12614   0.60781  -1.05430   0.0000000000
H          H      -0.82330   1.39271  -1.10160   0.0000000000
H          H      -0.12428   0.70971  -1.10269   0.0000000000
H          H      -0.21274   1.51234  -1.22532   0.0000000000
H          H      -0.72725   0.71213  -1.22651   0.0000000000
H          H      -0.17704   1.56087  -1.17294   0.0000000000
H          H      -0.75684   0.61121  -1.17402   0.0000000000
C          C      -0.37070   1.45172  -0.98427   0.0000000000
C          C      -0.58235   0.53446  -0.98562   0.0000000000
C          C      -0.39300   1.42130  -0.92485   0.0000000000
C          C      -0.57950   0.50574  -0.92615   0.0000000000
H          H      -0.28016   1.43026  -1.00317   0.0000000000
H          H      -0.66311   0.57545  -1.00543   0.0000000000
H          H      -0.33148   1.37917  -0.90561   0.0000000000
H          H      -0.63807   0.52964  -0.90792   0.0000000000
C          C      -0.52745   1.41733  -1.19806   0.0000000000
C          C      -0.43539   0.78086  -1.19787   0.0000000000
C          C      -0.38798   1.36261  -1.17570   0.0000000000
C          C      -0.57837   0.81137  -1.17362   0.0000000000
C          C      -0.38842   1.33319  -1.20576   0.0000000000
C          C      -0.59336   0.87154  -1.20363   0.0000000000
C          C      -0.53225   1.35643  -1.25957   0.0000000000
C          C      -0.46237   0.90330  -1.25857   0.0000000000
C          C      -0.67334   1.41135  -1.28216   0.0000000000
C          C      -0.31362   0.87214  -1.28160   0.0000000000
C          C      -0.66929   1.44147  -1.25210   0.0000000000
C          C      -0.30256   0.81267  -1.25230   0.0000000000
H          H      -0.67619   0.78988  -0.13408   0.0000000000
H          H      -0.70418   0.89212  -0.18515   0.0000000000
H          H      -0.78220   1.42981  -1.32082   0.0000000000
H          H      -0.77170   1.48121  -1.26988   0.0000000000
C          C      -0.69400   0.43488  -0.79981   0.0000000000
C          C      -0.33788   1.36480  -0.79957   0.0000000000
C          C      -0.69596   0.40521  -0.74070   0.0000000000
C          C      -0.34673   1.33390  -0.74004   0.0000000000
H          H      -0.19249   1.34856  -0.81827   0.0000000000
H          H      -0.21578   1.29702  -0.71917   0.0000000000
N          N      -0.46981   0.53834  -1.07669   0.0000000000
C          C      -0.47395   0.50922  -1.01768   0.0000000000
C          C      -0.49652   0.44717  -0.89299   0.0000000000
C          C      -0.51197   0.41657  -0.83235   0.0000000000
C          C      -0.52383   0.35391  -0.70916   0.0000000000
H          H      -0.35167   1.34319  -1.41772   0.0000000000
H          H      -0.68484   1.07317  -1.41619   0.0000000000
H          H      -0.64989   1.19329  -1.53850   0.0000000000
H          H      -0.39610   1.34455  -1.53894   0.0000000000
H          H      -0.33277   1.07767  -1.27367   0.0000000000
H          H      -0.71110   1.19801  -1.27418   0.0000000000
C          C      -0.53382   1.32646  -1.28991   0.0000000000
C          C      -0.47994   0.96358  -1.28882   0.0000000000
C          C      -0.52360   1.32405  -1.64942   0.0000000000
H          H      -0.35306   1.39394  -1.36656   0.0000000000
H          H      -0.66111   0.97130  -1.36490   0.0000000000
H          H      -0.71637   1.24912  -1.22339   0.0000000000
H          H      -0.30528   0.97602  -1.22282   0.0000000000
H          H      -0.65066   1.24362  -1.63932   0.0000000000
H          H      -0.39417   1.39455  -1.63976   0.0000000000
N          N      -0.88634   0.48061  -0.81829   0.0000000000
S          S      -1.05142   0.49148  -0.76802   0.0000000000
N          N      -0.87879   0.43067  -0.71907   0.0000000000
N          N      -0.23705   0.33320  -0.12616   0.0000000000
S          S      -0.09073   0.26999  -0.11467   0.0000000000
N          N      -0.23444   0.28308  -0.17759   0.0000000000
N          N      -0.16575   0.89345  -0.33157   0.0000000000
S          S      -0.01489   0.84308  -0.34464   0.0000000000
N          N      -0.15156   0.79197  -0.28177   0.0000000000
