data_Ph-AnCD-COF
_audit_creation_date              0000-00-00
_audit_creation_method            'LanYouShi'
_symmetry_space_group_name_H-M    'P1'
_cell_length_a                    28.1474991
_cell_length_b                    28.1474991
_cell_length_c                    14.5171003
_cell_angle_alpha                 90.0000000
_cell_angle_beta                  90.0000000
_cell_angle_gamma                 120.0000000
loop_
_atom_site_label
_atom_site_type_symbol
_atom_site_fract_x
_atom_site_fract_y
_atom_site_fract_z
_atom_site_U_iso_or_equiv
_atom_site_adp_type
_atom_site_occupancy
        C1          C  0.9072989  0.4028673  0.3619970    0.00000       Uiso       1.00
        C2          C  0.5971340  0.5044317  0.3619970    0.00000       Uiso       1.00
        C3          C  0.4955696  0.0927024  0.3619970    0.00000       Uiso       1.00
        C4          C  0.0927024  0.5971341  0.3619970    0.00000       Uiso       1.00
        C5          C  0.4028673  0.4955696  0.3619970    0.00000       Uiso       1.00
        C6          C  0.5044317  0.9072989  0.3619970    0.00000       Uiso       1.00
        C7          C  0.4028673  0.9072989  0.6380050    0.00000       Uiso       1.00
        C8          C  0.5044317  0.5971341  0.6380050    0.00000       Uiso       1.00
        C9          C  0.0927024  0.4955696  0.6380050    0.00000       Uiso       1.00
       C10          C  0.5971341  0.0927024  0.6380050    0.00000       Uiso       1.00
       C11          C  0.4955696  0.4028673  0.6380050    0.00000       Uiso       1.00
       C12          C  0.9072989  0.5044317  0.6380050    0.00000       Uiso       1.00
       C13          C  0.0927024  0.5971341  0.6380050    0.00000       Uiso       1.00
       C14          C  0.4028673  0.4955696  0.6380050    0.00000       Uiso       1.00
       C15          C  0.5044317  0.9072989  0.6380050    0.00000       Uiso       1.00
       C16          C  0.9072989  0.4028673  0.6380050    0.00000       Uiso       1.00
       C17          C  0.5971340  0.5044317  0.6380050    0.00000       Uiso       1.00
       C18          C  0.4955696  0.0927024  0.6380050    0.00000       Uiso       1.00
       C19          C  0.5971341  0.0927024  0.3619970    0.00000       Uiso       1.00
       C20          C  0.4955696  0.4028673  0.3619970    0.00000       Uiso       1.00
       C21          C  0.9072989  0.5044317  0.3619970    0.00000       Uiso       1.00
       C22          C  0.4028673  0.9072989  0.3619970    0.00000       Uiso       1.00
       C23          C  0.5044317  0.5971341  0.3619970    0.00000       Uiso       1.00
       C24          C  0.0927024  0.4955696  0.3619970    0.00000       Uiso       1.00
       C25          C  0.9513733  0.4501637  0.4021512    0.00000       Uiso       1.00
       C26          C  0.5498376  0.5012096  0.4021512    0.00000       Uiso       1.00
       C27          C  0.4987917  0.0486280  0.4021512    0.00000       Uiso       1.00
       C28          C  0.0486280  0.5498376  0.4021512    0.00000       Uiso       1.00
       C29          C  0.4501637  0.4987917  0.4021512    0.00000       Uiso       1.00
       C30          C  0.5012096  0.9513733  0.4021512    0.00000       Uiso       1.00
       C31          C  0.4501637  0.9513733  0.5978509    0.00000       Uiso       1.00
       C32          C  0.5012096  0.5498376  0.5978509    0.00000       Uiso       1.00
       C33          C  0.0486280  0.4987917  0.5978509    0.00000       Uiso       1.00
       C34          C  0.5498376  0.0486280  0.5978509    0.00000       Uiso       1.00
       C35          C  0.4987917  0.4501637  0.5978509    0.00000       Uiso       1.00
       C36          C  0.9513733  0.5012096  0.5978509    0.00000       Uiso       1.00
       C37          C  0.0486280  0.5498376  0.5978509    0.00000       Uiso       1.00
       C38          C  0.4501637  0.4987917  0.5978509    0.00000       Uiso       1.00
       C39          C  0.5012096  0.9513733  0.5978509    0.00000       Uiso       1.00
       C40          C  0.9513733  0.4501637  0.5978509    0.00000       Uiso       1.00
       C41          C  0.5498376  0.5012096  0.5978509    0.00000       Uiso       1.00
       C42          C  0.4987917  0.0486280  0.5978509    0.00000       Uiso       1.00
       C43          C  0.5498376  0.0486280  0.4021512    0.00000       Uiso       1.00
       C44          C  0.4987917  0.4501637  0.4021512    0.00000       Uiso       1.00
       C45          C  0.9513733  0.5012096  0.4021512    0.00000       Uiso       1.00
       C46          C  0.4501637  0.9513733  0.4021512    0.00000       Uiso       1.00
       C47          C  0.5012096  0.5498376  0.4021512    0.00000       Uiso       1.00
       C48          C  0.0486280  0.4987917  0.4021512    0.00000       Uiso       1.00
        H1          H  0.9062225  0.3661338  0.3611364    0.00000       Uiso       1.00
        H2          H  0.6338675  0.5400887  0.3611364    0.00000       Uiso       1.00
        H3          H  0.4599126  0.0937789  0.3611364    0.00000       Uiso       1.00
        H4          H  0.0937788  0.6338675  0.3611364    0.00000       Uiso       1.00
        H5          H  0.3661338  0.4599126  0.3611364    0.00000       Uiso       1.00
        H6          H  0.5400887  0.9062224  0.3611364    0.00000       Uiso       1.00
        H7          H  0.3661337  0.9062224  0.6388656    0.00000       Uiso       1.00
        H8          H  0.5400887  0.6338675  0.6388656    0.00000       Uiso       1.00
        H9          H  0.0937789  0.4599126  0.6388656    0.00000       Uiso       1.00
       H10          H  0.6338675  0.0937789  0.6388656    0.00000       Uiso       1.00
       H11          H  0.4599126  0.3661338  0.6388656    0.00000       Uiso       1.00
       H12          H  0.9062224  0.5400887  0.6388656    0.00000       Uiso       1.00
       H13          H  0.0937788  0.6338675  0.6388656    0.00000       Uiso       1.00
       H14          H  0.3661338  0.4599126  0.6388656    0.00000       Uiso       1.00
       H15          H  0.5400887  0.9062224  0.6388656    0.00000       Uiso       1.00
       H16          H  0.9062225  0.3661338  0.6388656    0.00000       Uiso       1.00
       H17          H  0.6338675  0.5400887  0.6388656    0.00000       Uiso       1.00
       H18          H  0.4599126  0.0937789  0.6388656    0.00000       Uiso       1.00
       H19          H  0.6338675  0.0937789  0.3611364    0.00000       Uiso       1.00
       H20          H  0.4599126  0.3661338  0.3611364    0.00000       Uiso       1.00
       H21          H  0.9062224  0.5400887  0.3611364    0.00000       Uiso       1.00
       H22          H  0.3661337  0.9062224  0.3611364    0.00000       Uiso       1.00
       H23          H  0.5400887  0.6338675  0.3611364    0.00000       Uiso       1.00
       H24          H  0.0937789  0.4599126  0.3611364    0.00000       Uiso       1.00
       C49          C  0.8635109  0.4069383  0.3250505    0.00000       Uiso       1.00
       C50          C  0.5930629  0.4565726  0.3250505    0.00000       Uiso       1.00
       C51          C  0.5434287  0.1364904  0.3250505    0.00000       Uiso       1.00
       C52          C  0.1364904  0.5930629  0.3250505    0.00000       Uiso       1.00
       C53          C  0.4069383  0.5434287  0.3250505    0.00000       Uiso       1.00
       C54          C  0.4565726  0.8635109  0.3250505    0.00000       Uiso       1.00
       C55          C  0.4069383  0.8635109  0.6749515    0.00000       Uiso       1.00
       C56          C  0.4565726  0.5930629  0.6749515    0.00000       Uiso       1.00
       C57          C  0.1364904  0.5434287  0.6749515    0.00000       Uiso       1.00
       C58          C  0.5930629  0.1364904  0.6749515    0.00000       Uiso       1.00
       C59          C  0.5434287  0.4069383  0.6749515    0.00000       Uiso       1.00
       C60          C  0.8635109  0.4565726  0.6749515    0.00000       Uiso       1.00
       C61          C  0.1364904  0.5930629  0.6749515    0.00000       Uiso       1.00
       C62          C  0.4069383  0.5434287  0.6749515    0.00000       Uiso       1.00
       C63          C  0.4565726  0.8635109  0.6749515    0.00000       Uiso       1.00
       C64          C  0.8635109  0.4069383  0.6749515    0.00000       Uiso       1.00
       C65          C  0.5930629  0.4565726  0.6749515    0.00000       Uiso       1.00
       C66          C  0.5434287  0.1364904  0.6749515    0.00000       Uiso       1.00
       C67          C  0.5930629  0.1364904  0.3250505    0.00000       Uiso       1.00
       C68          C  0.5434287  0.4069383  0.3250505    0.00000       Uiso       1.00
       C69          C  0.8635109  0.4565726  0.3250505    0.00000       Uiso       1.00
       C70          C  0.4069383  0.8635109  0.3250505    0.00000       Uiso       1.00
       C71          C  0.4565726  0.5930629  0.3250505    0.00000       Uiso       1.00
       C72          C  0.1364904  0.5434287  0.3250505    0.00000       Uiso       1.00
       C73          C  0.0000000  0.4497901  0.4448594    0.00000       Uiso       1.00
       C74          C  0.5502112  0.5502112  0.4448594    0.00000       Uiso       1.00
       C75          C  0.4497901  0.0000000  0.4448594    0.00000       Uiso       1.00
       C76          C -0.0000000  0.5502112  0.4448594    0.00000       Uiso       1.00
       C77          C  0.4497901  0.4497901  0.4448594    0.00000       Uiso       1.00
       C78          C  0.5502112  0.0000000  0.4448594    0.00000       Uiso       1.00
       C79          C  0.4497901  0.0000000  0.5551427    0.00000       Uiso       1.00
       C80          C  0.5502112  0.5502112  0.5551427    0.00000       Uiso       1.00
       C81          C  0.0000000  0.4497901  0.5551427    0.00000       Uiso       1.00
       C82          C  0.5502112  0.0000000  0.5551427    0.00000       Uiso       1.00
       C83          C  0.4497901  0.4497901  0.5551427    0.00000       Uiso       1.00
       C84          C -0.0000000  0.5502112  0.5551427    0.00000       Uiso       1.00
       C85          C  0.2751313  0.6375663  0.2480230    0.00000       Uiso       1.00
       C86          C  0.3624350  0.6375663  0.2480230    0.00000       Uiso       1.00
       C87          C  0.3624350  0.7248700  0.2480230    0.00000       Uiso       1.00
       C88          C  0.7248700  0.3624350  0.2480230    0.00000       Uiso       1.00
       C89          C  0.6375663  0.3624350  0.2480230    0.00000       Uiso       1.00
       C90          C  0.6375663  0.2751313  0.2480230    0.00000       Uiso       1.00
       C91          C  0.6375663  0.2751313  0.7519790    0.00000       Uiso       1.00
       C92          C  0.6375663  0.3624350  0.7519790    0.00000       Uiso       1.00
       C93          C  0.7248700  0.3624350  0.7519790    0.00000       Uiso       1.00
       C94          C  0.3624350  0.7248700  0.7519790    0.00000       Uiso       1.00
       C95          C  0.3624350  0.6375663  0.7519790    0.00000       Uiso       1.00
       C96          C  0.2751313  0.6375663  0.7519790    0.00000       Uiso       1.00
       C97          C  0.3044867  0.6089733  0.2453312    0.00000       Uiso       1.00
       C98          C  0.3910279  0.6955146  0.2453312    0.00000       Uiso       1.00
       C99          C  0.3044866  0.6955146  0.2453312    0.00000       Uiso       1.00
      C100          C  0.6955146  0.3910279  0.2453312    0.00000       Uiso       1.00
      C101          C  0.6089733  0.3044867  0.2453312    0.00000       Uiso       1.00
      C102          C  0.6955146  0.3044867  0.2453312    0.00000       Uiso       1.00
      C103          C  0.6089733  0.3044867  0.7546709    0.00000       Uiso       1.00
      C104          C  0.6955146  0.3910279  0.7546709    0.00000       Uiso       1.00
      C105          C  0.6955146  0.3044867  0.7546709    0.00000       Uiso       1.00
      C106          C  0.3910279  0.6955146  0.7546709    0.00000       Uiso       1.00
      C107          C  0.3044867  0.6089733  0.7546709    0.00000       Uiso       1.00
      C108          C  0.3044866  0.6955146  0.7546709    0.00000       Uiso       1.00
       H25          H  0.2834878  0.7165134  0.2480344    0.00000       Uiso       1.00
       H26          H  0.2834878  0.5669757  0.2480344    0.00000       Uiso       1.00
       H27          H  0.4330256  0.7165134  0.2480344    0.00000       Uiso       1.00
       H28          H  0.7165135  0.2834878  0.2480344    0.00000       Uiso       1.00
       H29          H  0.7165135  0.4330256  0.2480344    0.00000       Uiso       1.00
       H30          H  0.5669757  0.2834878  0.2480344    0.00000       Uiso       1.00
       H31          H  0.7165135  0.2834878  0.7519676    0.00000       Uiso       1.00
       H32          H  0.5669757  0.2834878  0.7519676    0.00000       Uiso       1.00
       H33          H  0.7165135  0.4330256  0.7519676    0.00000       Uiso       1.00
       H34          H  0.2834878  0.7165134  0.7519676    0.00000       Uiso       1.00
       H35          H  0.4330256  0.7165134  0.7519676    0.00000       Uiso       1.00
       H36          H  0.2834878  0.5669757  0.7519676    0.00000       Uiso       1.00
       H37          H  0.0000000  0.4125893  0.4226340    0.00000       Uiso       1.00
       H38          H  0.5874119  0.5874119  0.4226340    0.00000       Uiso       1.00
       H39          H  0.4125893  0.0000000  0.4226340    0.00000       Uiso       1.00
       H40          H -0.0000000  0.5874119  0.4226340    0.00000       Uiso       1.00
       H41          H  0.4125893  0.4125893  0.4226340    0.00000       Uiso       1.00
       H42          H  0.5874119  0.0000000  0.4226340    0.00000       Uiso       1.00
       H43          H  0.4125893  0.0000000  0.5773680    0.00000       Uiso       1.00
       H44          H  0.5874119  0.5874119  0.5773680    0.00000       Uiso       1.00
       H45          H  0.0000000  0.4125893  0.5773680    0.00000       Uiso       1.00
       H46          H  0.5874119  0.0000000  0.5773680    0.00000       Uiso       1.00
       H47          H  0.4125893  0.4125893  0.5773680    0.00000       Uiso       1.00
       H48          H -0.0000000  0.5874119  0.5773680    0.00000       Uiso       1.00
        O1          O  0.1833154  0.5495978  0.2891172    0.00000       Uiso       1.00
        O1          O  0.4504035  0.6337188  0.2891172    0.00000       Uiso       1.00
        O1          O  0.3662824  0.8166859  0.2891172    0.00000       Uiso       1.00
        O1          O  0.8166859  0.4504035  0.2891172    0.00000       Uiso       1.00
        O1          O  0.5495978  0.3662824  0.2891172    0.00000       Uiso       1.00
        O1          O  0.6337188  0.1833154  0.2891172    0.00000       Uiso       1.00
        O1          O  0.5495978  0.1833154  0.7108849    0.00000       Uiso       1.00
        O1          O  0.6337188  0.4504035  0.7108849    0.00000       Uiso       1.00
        O1          O  0.8166859  0.3662824  0.7108849    0.00000       Uiso       1.00
        O1          O  0.4504035  0.8166859  0.7108849    0.00000       Uiso       1.00
        O1          O  0.3662824  0.5495978  0.7108849    0.00000       Uiso       1.00
        O1          O  0.1833154  0.6337188  0.7108849    0.00000       Uiso       1.00
        O1          O  0.8166859  0.4504035  0.7108849    0.00000       Uiso       1.00
        O1          O  0.5495978  0.3662824  0.7108849    0.00000       Uiso       1.00
        O1          O  0.6337188  0.1833154  0.7108849    0.00000       Uiso       1.00
        O1          O  0.1833154  0.5495978  0.7108849    0.00000       Uiso       1.00
        O1          O  0.4504035  0.6337188  0.7108849    0.00000       Uiso       1.00
        O1          O  0.3662824  0.8166859  0.7108849    0.00000       Uiso       1.00
        O1          O  0.4504035  0.8166859  0.2891172    0.00000       Uiso       1.00
        O1          O  0.3662824  0.5495978  0.2891172    0.00000       Uiso       1.00
        O1          O  0.1833154  0.6337188  0.2891172    0.00000       Uiso       1.00
        O1          O  0.5495978  0.1833154  0.2891172    0.00000       Uiso       1.00
        O1          O  0.6337188  0.4504035  0.2891172    0.00000       Uiso       1.00
        O1          O  0.8166859  0.3662824  0.2891172    0.00000       Uiso       1.00
        B1          B  0.7845242  0.3922621  0.2703119    0.00000       Uiso       1.00
        B1          B  0.6077392  0.3922621  0.2703119    0.00000       Uiso       1.00
        B1          B  0.6077392  0.2154770  0.2703119    0.00000       Uiso       1.00
        B1          B  0.2154770  0.6077392  0.2703119    0.00000       Uiso       1.00
        B1          B  0.3922621  0.6077392  0.2703119    0.00000       Uiso       1.00
        B1          B  0.3922621  0.7845242  0.2703119    0.00000       Uiso       1.00
        B1          B  0.3922621  0.7845242  0.7296901    0.00000       Uiso       1.00
        B1          B  0.3922621  0.6077392  0.7296901    0.00000       Uiso       1.00
        B1          B  0.2154770  0.6077392  0.7296901    0.00000       Uiso       1.00
        B1          B  0.6077392  0.2154770  0.7296901    0.00000       Uiso       1.00
        B1          B  0.6077392  0.3922621  0.7296901    0.00000       Uiso       1.00
        B1          B  0.7845242  0.3922621  0.7296901    0.00000       Uiso       1.00
