data_crystal
 
_cell_length_a    28.14750
_cell_length_b    28.14750
_cell_length_c    14.51710
_cell_angle_alpha 90.00000
_cell_angle_beta  90.00000
_cell_angle_gamma 120.00000
 
_symmetry_space_group_name_Hall 'P 1'
_symmetry_space_group_name_H-M  'P 1'
 
loop_
_symmetry_equiv_pos_as_xyz
 'x,y,z' 
 
loop_
_atom_site_label
_atom_site_type_symbol
_atom_site_fract_x
_atom_site_fract_y
_atom_site_fract_z
_atom_site_charge
C          C       0.90730   0.40287   0.36200   0.0000000000
C          C       0.59713   0.50443   0.36200   0.0000000000
C          C       0.49557   0.09270   0.36200   0.0000000000
C          C       0.09270   0.59713   0.36200   0.0000000000
C          C       0.40287   0.49557   0.36200   0.0000000000
C          C       0.50443   0.90730   0.36200   0.0000000000
C          C       0.40287   0.90730   0.63801   0.0000000000
C          C       0.50443   0.59713   0.63801   0.0000000000
C          C       0.09270   0.49557   0.63801   0.0000000000
C          C       0.59713   0.09270   0.63801   0.0000000000
C          C       0.49557   0.40287   0.63801   0.0000000000
C          C       0.90730   0.50443   0.63801   0.0000000000
C          C       0.09270   0.59713   0.63801   0.0000000000
C          C       0.40287   0.49557   0.63801   0.0000000000
C          C       0.50443   0.90730   0.63801   0.0000000000
C          C       0.90730   0.40287   0.63801   0.0000000000
C          C       0.59713   0.50443   0.63801   0.0000000000
C          C       0.49557   0.09270   0.63801   0.0000000000
C          C       0.59713   0.09270   0.36200   0.0000000000
C          C       0.49557   0.40287   0.36200   0.0000000000
C          C       0.90730   0.50443   0.36200   0.0000000000
C          C       0.40287   0.90730   0.36200   0.0000000000
C          C       0.50443   0.59713   0.36200   0.0000000000
C          C       0.09270   0.49557   0.36200   0.0000000000
C          C       0.95137   0.45016   0.40215   0.0000000000
C          C       0.54984   0.50121   0.40215   0.0000000000
C          C       0.49879   0.04863   0.40215   0.0000000000
C          C       0.04863   0.54984   0.40215   0.0000000000
C          C       0.45016   0.49879   0.40215   0.0000000000
C          C       0.50121   0.95137   0.40215   0.0000000000
C          C       0.45016   0.95137   0.59785   0.0000000000
C          C       0.50121   0.54984   0.59785   0.0000000000
C          C       0.04863   0.49879   0.59785   0.0000000000
C          C       0.54984   0.04863   0.59785   0.0000000000
C          C       0.49879   0.45016   0.59785   0.0000000000
C          C       0.95137   0.50121   0.59785   0.0000000000
C          C       0.04863   0.54984   0.59785   0.0000000000
C          C       0.45016   0.49879   0.59785   0.0000000000
C          C       0.50121   0.95137   0.59785   0.0000000000
C          C       0.95137   0.45016   0.59785   0.0000000000
C          C       0.54984   0.50121   0.59785   0.0000000000
C          C       0.49879   0.04863   0.59785   0.0000000000
C          C       0.54984   0.04863   0.40215   0.0000000000
C          C       0.49879   0.45016   0.40215   0.0000000000
C          C       0.95137   0.50121   0.40215   0.0000000000
C          C       0.45016   0.95137   0.40215   0.0000000000
C          C       0.50121   0.54984   0.40215   0.0000000000
C          C       0.04863   0.49879   0.40215   0.0000000000
H          H       0.90622   0.36613   0.36114   0.0000000000
H          H       0.63387   0.54009   0.36114   0.0000000000
H          H       0.45991   0.09378   0.36114   0.0000000000
H          H       0.09378   0.63387   0.36114   0.0000000000
H          H       0.36613   0.45991   0.36114   0.0000000000
H          H       0.54009   0.90622   0.36114   0.0000000000
H          H       0.36613   0.90622   0.63887   0.0000000000
H          H       0.54009   0.63387   0.63887   0.0000000000
H          H       0.09378   0.45991   0.63887   0.0000000000
H          H       0.63387   0.09378   0.63887   0.0000000000
H          H       0.45991   0.36613   0.63887   0.0000000000
H          H       0.90622   0.54009   0.63887   0.0000000000
H          H       0.09378   0.63387   0.63887   0.0000000000
H          H       0.36613   0.45991   0.63887   0.0000000000
H          H       0.54009   0.90622   0.63887   0.0000000000
H          H       0.90622   0.36613   0.63887   0.0000000000
H          H       0.63387   0.54009   0.63887   0.0000000000
H          H       0.45991   0.09378   0.63887   0.0000000000
H          H       0.63387   0.09378   0.36114   0.0000000000
H          H       0.45991   0.36613   0.36114   0.0000000000
H          H       0.90622   0.54009   0.36114   0.0000000000
H          H       0.36613   0.90622   0.36114   0.0000000000
H          H       0.54009   0.63387   0.36114   0.0000000000
H          H       0.09378   0.45991   0.36114   0.0000000000
C          C       0.86351   0.40694   0.32505   0.0000000000
C          C       0.59306   0.45657   0.32505   0.0000000000
C          C       0.54343   0.13649   0.32505   0.0000000000
C          C       0.13649   0.59306   0.32505   0.0000000000
C          C       0.40694   0.54343   0.32505   0.0000000000
C          C       0.45657   0.86351   0.32505   0.0000000000
C          C       0.40694   0.86351   0.67495   0.0000000000
C          C       0.45657   0.59306   0.67495   0.0000000000
C          C       0.13649   0.54343   0.67495   0.0000000000
C          C       0.59306   0.13649   0.67495   0.0000000000
C          C       0.54343   0.40694   0.67495   0.0000000000
C          C       0.86351   0.45657   0.67495   0.0000000000
C          C       0.13649   0.59306   0.67495   0.0000000000
C          C       0.40694   0.54343   0.67495   0.0000000000
C          C       0.45657   0.86351   0.67495   0.0000000000
C          C       0.86351   0.40694   0.67495   0.0000000000
C          C       0.59306   0.45657   0.67495   0.0000000000
C          C       0.54343   0.13649   0.67495   0.0000000000
C          C       0.59306   0.13649   0.32505   0.0000000000
C          C       0.54343   0.40694   0.32505   0.0000000000
C          C       0.86351   0.45657   0.32505   0.0000000000
C          C       0.40694   0.86351   0.32505   0.0000000000
C          C       0.45657   0.59306   0.32505   0.0000000000
C          C       0.13649   0.54343   0.32505   0.0000000000
C          C       0.00000   0.44979   0.44486   0.0000000000
C          C       0.55021   0.55021   0.44486   0.0000000000
C          C       0.44979   0.00000   0.44486   0.0000000000
C          C      -0.00000   0.55021   0.44486   0.0000000000
C          C       0.44979   0.44979   0.44486   0.0000000000
C          C       0.55021   0.00000   0.44486   0.0000000000
C          C       0.44979   0.00000   0.55514   0.0000000000
C          C       0.55021   0.55021   0.55514   0.0000000000
C          C       0.00000   0.44979   0.55514   0.0000000000
C          C       0.55021   0.00000   0.55514   0.0000000000
C          C       0.44979   0.44979   0.55514   0.0000000000
C          C      -0.00000   0.55021   0.55514   0.0000000000
C          C       0.27513   0.63757   0.24802   0.0000000000
C          C       0.36244   0.63757   0.24802   0.0000000000
C          C       0.36244   0.72487   0.24802   0.0000000000
C          C       0.72487   0.36244   0.24802   0.0000000000
C          C       0.63757   0.36244   0.24802   0.0000000000
C          C       0.63757   0.27513   0.24802   0.0000000000
C          C       0.63757   0.27513   0.75198   0.0000000000
C          C       0.63757   0.36244   0.75198   0.0000000000
C          C       0.72487   0.36244   0.75198   0.0000000000
C          C       0.36244   0.72487   0.75198   0.0000000000
C          C       0.36244   0.63757   0.75198   0.0000000000
C          C       0.27513   0.63757   0.75198   0.0000000000
C          C       0.30449   0.60897   0.24533   0.0000000000
C          C       0.39103   0.69551   0.24533   0.0000000000
C          C       0.30449   0.69551   0.24533   0.0000000000
C          C       0.69551   0.39103   0.24533   0.0000000000
C          C       0.60897   0.30449   0.24533   0.0000000000
C          C       0.69551   0.30449   0.24533   0.0000000000
C          C       0.60897   0.30449   0.75467   0.0000000000
C          C       0.69551   0.39103   0.75467   0.0000000000
C          C       0.69551   0.30449   0.75467   0.0000000000
C          C       0.39103   0.69551   0.75467   0.0000000000
C          C       0.30449   0.60897   0.75467   0.0000000000
C          C       0.30449   0.69551   0.75467   0.0000000000
H          H       0.28349   0.71651   0.24803   0.0000000000
H          H       0.28349   0.56698   0.24803   0.0000000000
H          H       0.43303   0.71651   0.24803   0.0000000000
H          H       0.71651   0.28349   0.24803   0.0000000000
H          H       0.71651   0.43303   0.24803   0.0000000000
H          H       0.56698   0.28349   0.24803   0.0000000000
H          H       0.71651   0.28349   0.75197   0.0000000000
H          H       0.56698   0.28349   0.75197   0.0000000000
H          H       0.71651   0.43303   0.75197   0.0000000000
H          H       0.28349   0.71651   0.75197   0.0000000000
H          H       0.43303   0.71651   0.75197   0.0000000000
H          H       0.28349   0.56698   0.75197   0.0000000000
H          H       0.00000   0.41259   0.42263   0.0000000000
H          H       0.58741   0.58741   0.42263   0.0000000000
H          H       0.41259   0.00000   0.42263   0.0000000000
H          H      -0.00000   0.58741   0.42263   0.0000000000
H          H       0.41259   0.41259   0.42263   0.0000000000
H          H       0.58741   0.00000   0.42263   0.0000000000
H          H       0.41259   0.00000   0.57737   0.0000000000
H          H       0.58741   0.58741   0.57737   0.0000000000
H          H       0.00000   0.41259   0.57737   0.0000000000
H          H       0.58741   0.00000   0.57737   0.0000000000
H          H       0.41259   0.41259   0.57737   0.0000000000
H          H      -0.00000   0.58741   0.57737   0.0000000000
O          O       0.18332   0.54960   0.28912   0.0000000000
O          O       0.45040   0.63372   0.28912   0.0000000000
O          O       0.36628   0.81669   0.28912   0.0000000000
O          O       0.81669   0.45040   0.28912   0.0000000000
O          O       0.54960   0.36628   0.28912   0.0000000000
O          O       0.63372   0.18332   0.28912   0.0000000000
O          O       0.54960   0.18332   0.71088   0.0000000000
O          O       0.63372   0.45040   0.71088   0.0000000000
O          O       0.81669   0.36628   0.71088   0.0000000000
O          O       0.45040   0.81669   0.71088   0.0000000000
O          O       0.36628   0.54960   0.71088   0.0000000000
O          O       0.18332   0.63372   0.71088   0.0000000000
O          O       0.81669   0.45040   0.71088   0.0000000000
O          O       0.54960   0.36628   0.71088   0.0000000000
O          O       0.63372   0.18332   0.71088   0.0000000000
O          O       0.18332   0.54960   0.71088   0.0000000000
O          O       0.45040   0.63372   0.71088   0.0000000000
O          O       0.36628   0.81669   0.71088   0.0000000000
O          O       0.45040   0.81669   0.28912   0.0000000000
O          O       0.36628   0.54960   0.28912   0.0000000000
O          O       0.18332   0.63372   0.28912   0.0000000000
O          O       0.54960   0.18332   0.28912   0.0000000000
O          O       0.63372   0.45040   0.28912   0.0000000000
O          O       0.81669   0.36628   0.28912   0.0000000000
B          B       0.78452   0.39226   0.27031   0.0000000000
B          B       0.60774   0.39226   0.27031   0.0000000000
B          B       0.60774   0.21548   0.27031   0.0000000000
B          B       0.21548   0.60774   0.27031   0.0000000000
B          B       0.39226   0.60774   0.27031   0.0000000000
B          B       0.39226   0.78452   0.27031   0.0000000000
B          B       0.39226   0.78452   0.72969   0.0000000000
B          B       0.39226   0.60774   0.72969   0.0000000000
B          B       0.21548   0.60774   0.72969   0.0000000000
B          B       0.60774   0.21548   0.72969   0.0000000000
B          B       0.60774   0.39226   0.72969   0.0000000000
B          B       0.78452   0.39226   0.72969   0.0000000000
