data_PI-COF-4-0P
_audit_creation_date              0000-00-00
_audit_creation_method            'LanYouShi'
_symmetry_space_group_name_H-M    'P1'
_cell_length_a                    20.4899998
_cell_length_b                    20.4899998
_cell_length_c                    32.2000008
_cell_angle_alpha                 90.0000000
_cell_angle_beta                  90.0000000
_cell_angle_gamma                 90.0000000
loop_
_atom_site_label
_atom_site_type_symbol
_atom_site_fract_x
_atom_site_fract_y
_atom_site_fract_z
_atom_site_U_iso_or_equiv
_atom_site_adp_type
_atom_site_occupancy
        C1          C  0.3476090  0.6970725  0.3011493    0.00000       Uiso       1.00
        C2          C  0.2943442  0.7164317  0.2738512    0.00000       Uiso       1.00
        O1          O  0.3650735  0.6409013  0.3056199    0.00000       Uiso       1.00
        H1          H  0.4398648  0.8570259  0.3571764    0.00000       Uiso       1.00
        C3          C  0.8476090  0.1970725  0.8011493    0.00000       Uiso       1.00
        C4          C  0.7943442  0.2164317  0.7738513    0.00000       Uiso       1.00
        O2          O  0.8650734  0.1409014  0.8056198    0.00000       Uiso       1.00
        H2          H  0.9398649  0.3570260  0.8571764    0.00000       Uiso       1.00
        C5          C  0.1523911  0.3029275  0.8011493    0.00000       Uiso       1.00
        C6          C  0.2056558  0.2835683  0.7738513    0.00000       Uiso       1.00
        O3          O  0.1349265  0.3590986  0.8056198    0.00000       Uiso       1.00
        H3          H  0.0601352  0.1429740  0.8571764    0.00000       Uiso       1.00
        C7          C  0.6523911  0.8029275  0.3011493    0.00000       Uiso       1.00
        C8          C  0.7056558  0.7835683  0.2738512    0.00000       Uiso       1.00
        O4          O  0.6349266  0.8590987  0.3056199    0.00000       Uiso       1.00
        H4          H  0.5601351  0.6429740  0.3571764    0.00000       Uiso       1.00
        C9          C  0.5529276  0.0976089  0.5511494    0.00000       Uiso       1.00
       C10          C  0.5335684  0.0443442  0.5238512    0.00000       Uiso       1.00
        O5          O  0.6090987  0.1150735  0.5556198    0.00000       Uiso       1.00
        H5          H  0.3929740  0.1898648  0.6071764    0.00000       Uiso       1.00
       C11          C  0.0529275  0.5976090  0.0511494    0.00000       Uiso       1.00
       C12          C  0.0335683  0.5443442  0.0238512    0.00000       Uiso       1.00
        O6          O  0.1090987  0.6150735  0.0556199    0.00000       Uiso       1.00
        H6          H  0.8929740  0.6898648  0.1071765    0.00000       Uiso       1.00
       C13          C  0.9470725  0.9023910  0.0511494    0.00000       Uiso       1.00
       C14          C  0.9664317  0.9556558  0.0238512    0.00000       Uiso       1.00
        O7          O  0.8909013  0.8849266  0.0556199    0.00000       Uiso       1.00
        H7          H  0.1070260  0.8101351  0.1071765    0.00000       Uiso       1.00
       C15          C  0.4470725  0.4023911  0.5511494    0.00000       Uiso       1.00
       C16          C  0.4664317  0.4556558  0.5238512    0.00000       Uiso       1.00
        O8          O  0.3909013  0.3849265  0.5556198    0.00000       Uiso       1.00
        H8          H  0.6070259  0.3101352  0.6071764    0.00000       Uiso       1.00
       C17          C  0.1523911  0.6970725  0.1988506    0.00000       Uiso       1.00
       C18          C  0.2056558  0.7164317  0.2261488    0.00000       Uiso       1.00
        O9          O  0.1349265  0.6409013  0.1943801    0.00000       Uiso       1.00
        H9          H  0.0601352  0.8570259  0.1428235    0.00000       Uiso       1.00
       C19          C  0.6523911  0.1970725  0.6988506    0.00000       Uiso       1.00
       C20          C  0.7056558  0.2164317  0.7261487    0.00000       Uiso       1.00
       O10          O  0.6349266  0.1409014  0.6943802    0.00000       Uiso       1.00
       H10          H  0.5601351  0.3570260  0.6428236    0.00000       Uiso       1.00
       C21          C  0.3476090  0.3029275  0.6988506    0.00000       Uiso       1.00
       C22          C  0.2943442  0.2835683  0.7261487    0.00000       Uiso       1.00
       O11          O  0.3650735  0.3590986  0.6943802    0.00000       Uiso       1.00
       H11          H  0.4398648  0.1429740  0.6428236    0.00000       Uiso       1.00
       C23          C  0.8476090  0.8029275  0.1988506    0.00000       Uiso       1.00
       C24          C  0.7943442  0.7835683  0.2261488    0.00000       Uiso       1.00
       O12          O  0.8650734  0.8590987  0.1943801    0.00000       Uiso       1.00
       H12          H  0.9398649  0.6429740  0.1428235    0.00000       Uiso       1.00
       C25          C  0.9470725  0.0976089  0.9488506    0.00000       Uiso       1.00
       C26          C  0.9664317  0.0443442  0.9761487    0.00000       Uiso       1.00
       O13          O  0.8909013  0.1150735  0.9443801    0.00000       Uiso       1.00
       H13          H  0.1070260  0.1898648  0.8928235    0.00000       Uiso       1.00
       C27          C  0.4470725  0.5976090  0.4488506    0.00000       Uiso       1.00
       C28          C  0.4664317  0.5443442  0.4761488    0.00000       Uiso       1.00
       O14          O  0.3909013  0.6150735  0.4443801    0.00000       Uiso       1.00
       H14          H  0.6070259  0.6898648  0.3928235    0.00000       Uiso       1.00
       C29          C  0.5529276  0.9023910  0.4488506    0.00000       Uiso       1.00
       C30          C  0.5335684  0.9556558  0.4761488    0.00000       Uiso       1.00
       O15          O  0.6090987  0.8849266  0.4443801    0.00000       Uiso       1.00
       H15          H  0.3929740  0.8101351  0.3928235    0.00000       Uiso       1.00
       C31          C  0.0529275  0.4023911  0.9488506    0.00000       Uiso       1.00
       C32          C  0.0335683  0.4556558  0.9761487    0.00000       Uiso       1.00
       O16          O  0.1090987  0.3849265  0.9443801    0.00000       Uiso       1.00
       H16          H  0.8929740  0.3101352  0.8928235    0.00000       Uiso       1.00
       C33          C  0.6523911  0.3029275  0.6988506    0.00000       Uiso       1.00
       C34          C  0.7056558  0.2835683  0.7261487    0.00000       Uiso       1.00
       O17          O  0.6349266  0.3590986  0.6943802    0.00000       Uiso       1.00
       H17          H  0.5601351  0.1429740  0.6428236    0.00000       Uiso       1.00
       C35          C  0.1523911  0.8029275  0.1988506    0.00000       Uiso       1.00
       C36          C  0.2056558  0.7835683  0.2261488    0.00000       Uiso       1.00
       O18          O  0.1349265  0.8590987  0.1943801    0.00000       Uiso       1.00
       H18          H  0.0601352  0.6429740  0.1428235    0.00000       Uiso       1.00
       C37          C  0.8476090  0.6970725  0.1988506    0.00000       Uiso       1.00
       C38          C  0.7943442  0.7164317  0.2261488    0.00000       Uiso       1.00
       O19          O  0.8650734  0.6409013  0.1943801    0.00000       Uiso       1.00
       H19          H  0.9398649  0.8570259  0.1428235    0.00000       Uiso       1.00
       C39          C  0.3476090  0.1970725  0.6988506    0.00000       Uiso       1.00
       C40          C  0.2943442  0.2164317  0.7261487    0.00000       Uiso       1.00
       O20          O  0.3650735  0.1409014  0.6943802    0.00000       Uiso       1.00
       H20          H  0.4398648  0.3570260  0.6428236    0.00000       Uiso       1.00
       C41          C  0.4470725  0.9023910  0.4488506    0.00000       Uiso       1.00
       C42          C  0.4664317  0.9556558  0.4761488    0.00000       Uiso       1.00
       O21          O  0.3909013  0.8849266  0.4443801    0.00000       Uiso       1.00
       H21          H  0.6070259  0.8101351  0.3928235    0.00000       Uiso       1.00
       C43          C  0.9470725  0.4023911  0.9488506    0.00000       Uiso       1.00
       C44          C  0.9664317  0.4556558  0.9761487    0.00000       Uiso       1.00
       O22          O  0.8909013  0.3849265  0.9443801    0.00000       Uiso       1.00
       H22          H  0.1070260  0.3101352  0.8928235    0.00000       Uiso       1.00
       C45          C  0.0529275  0.0976089  0.9488506    0.00000       Uiso       1.00
       C46          C  0.0335683  0.0443442  0.9761487    0.00000       Uiso       1.00
       O23          O  0.1090987  0.1150735  0.9443801    0.00000       Uiso       1.00
       H23          H  0.8929740  0.1898648  0.8928235    0.00000       Uiso       1.00
       C47          C  0.5529276  0.5976090  0.4488506    0.00000       Uiso       1.00
       C48          C  0.5335684  0.5443442  0.4761488    0.00000       Uiso       1.00
       O24          O  0.6090987  0.6150735  0.4443801    0.00000       Uiso       1.00
       H24          H  0.3929740  0.6898648  0.3928235    0.00000       Uiso       1.00
       C49          C  0.8476090  0.3029275  0.8011493    0.00000       Uiso       1.00
       C50          C  0.7943442  0.2835683  0.7738513    0.00000       Uiso       1.00
       O25          O  0.8650734  0.3590986  0.8056198    0.00000       Uiso       1.00
       H25          H  0.9398649  0.1429740  0.8571764    0.00000       Uiso       1.00
       C51          C  0.3476090  0.8029275  0.3011493    0.00000       Uiso       1.00
       C52          C  0.2943442  0.7835683  0.2738512    0.00000       Uiso       1.00
       O26          O  0.3650735  0.8590987  0.3056199    0.00000       Uiso       1.00
       H26          H  0.4398648  0.6429740  0.3571764    0.00000       Uiso       1.00
       C53          C  0.6523911  0.6970725  0.3011493    0.00000       Uiso       1.00
       C54          C  0.7056558  0.7164317  0.2738512    0.00000       Uiso       1.00
       O27          O  0.6349266  0.6409013  0.3056199    0.00000       Uiso       1.00
       H27          H  0.5601351  0.8570259  0.3571764    0.00000       Uiso       1.00
       C55          C  0.1523911  0.1970725  0.8011493    0.00000       Uiso       1.00
       C56          C  0.2056558  0.2164317  0.7738513    0.00000       Uiso       1.00
       O28          O  0.1349265  0.1409014  0.8056198    0.00000       Uiso       1.00
       H28          H  0.0601352  0.3570260  0.8571764    0.00000       Uiso       1.00
       C57          C  0.0529275  0.9023910  0.0511494    0.00000       Uiso       1.00
       C58          C  0.0335683  0.9556558  0.0238512    0.00000       Uiso       1.00
       O29          O  0.1090987  0.8849266  0.0556199    0.00000       Uiso       1.00
       H29          H  0.8929740  0.8101351  0.1071765    0.00000       Uiso       1.00
       C59          C  0.5529276  0.4023911  0.5511494    0.00000       Uiso       1.00
       C60          C  0.5335684  0.4556558  0.5238512    0.00000       Uiso       1.00
       O30          O  0.6090987  0.3849265  0.5556198    0.00000       Uiso       1.00
       H30          H  0.3929740  0.3101352  0.6071764    0.00000       Uiso       1.00
       C61          C  0.4470725  0.0976089  0.5511494    0.00000       Uiso       1.00
       C62          C  0.4664317  0.0443442  0.5238512    0.00000       Uiso       1.00
       O31          O  0.3909013  0.1150735  0.5556198    0.00000       Uiso       1.00
       H31          H  0.6070259  0.1898648  0.6071764    0.00000       Uiso       1.00
       C63          C  0.9470725  0.5976090  0.0511494    0.00000       Uiso       1.00
       C64          C  0.9664317  0.5443442  0.0238512    0.00000       Uiso       1.00
       O32          O  0.8909013  0.6150735  0.0556199    0.00000       Uiso       1.00
       H32          H  0.1070260  0.6898648  0.1071765    0.00000       Uiso       1.00
       C65          C  0.4375093  0.7500000  0.3460957    0.00000       Uiso       1.00
        N1          N  0.3782514  0.7500000  0.3189328    0.00000       Uiso       1.00
       C66          C  0.0624907  0.2500000  0.8460957    0.00000       Uiso       1.00
        N2          N  0.1217486  0.2500000  0.8189328    0.00000       Uiso       1.00
       C67          C  0.5000000  0.1875093  0.5960958    0.00000       Uiso       1.00
        N3          N  0.5000000  0.1282514  0.5689328    0.00000       Uiso       1.00
       C68          C  0.0000000  0.6875093  0.0960958    0.00000       Uiso       1.00
        N4          N  0.0000000  0.6282514  0.0689328    0.00000       Uiso       1.00
       C69          C  0.0000000  0.8124907  0.0960958    0.00000       Uiso       1.00
        N5          N  0.0000000  0.8717486  0.0689328    0.00000       Uiso       1.00
       C70          C  0.5000000  0.3124907  0.5960958    0.00000       Uiso       1.00
        N6          N  0.5000000  0.3717486  0.5689328    0.00000       Uiso       1.00
       C71          C  0.0624907  0.7500000  0.1539042    0.00000       Uiso       1.00
        N7          N  0.1217486  0.7500000  0.1810672    0.00000       Uiso       1.00
       C72          C  0.4375093  0.2500000  0.6539042    0.00000       Uiso       1.00
        N8          N  0.3782514  0.2500000  0.6810672    0.00000       Uiso       1.00
       C73          C  0.0000000  0.1875093  0.9039042    0.00000       Uiso       1.00
        N9          N  0.0000000  0.1282514  0.9310671    0.00000       Uiso       1.00
       C74          C  0.5000000  0.6875093  0.4039042    0.00000       Uiso       1.00
       N10          N  0.5000000  0.6282514  0.4310671    0.00000       Uiso       1.00
       C75          C  0.5000000  0.8124907  0.4039042    0.00000       Uiso       1.00
       N11          N  0.5000000  0.8717486  0.4310671    0.00000       Uiso       1.00
       C76          C  0.0000000  0.3124907  0.9039042    0.00000       Uiso       1.00
       N12          N  0.0000000  0.3717486  0.9310671    0.00000       Uiso       1.00
       C77          C  0.5624906  0.2500000  0.6539042    0.00000       Uiso       1.00
       N13          N  0.6217486  0.2500000  0.6810672    0.00000       Uiso       1.00
       C78          C  0.9375094  0.7500000  0.1539042    0.00000       Uiso       1.00
       N14          N  0.8782514  0.7500000  0.1810672    0.00000       Uiso       1.00
       C79          C  0.9375094  0.2500000  0.8460957    0.00000       Uiso       1.00
       N15          N  0.8782514  0.2500000  0.8189328    0.00000       Uiso       1.00
       C80          C  0.5624906  0.7500000  0.3460957    0.00000       Uiso       1.00
       N16          N  0.6217486  0.7500000  0.3189328    0.00000       Uiso       1.00
       C81          C  0.4390156  0.8109844  0.3750000    0.00000       Uiso       1.00
       C82          C  0.9390156  0.3109844  0.8749999    0.00000       Uiso       1.00
       C83          C  0.0609844  0.1890156  0.8749999    0.00000       Uiso       1.00
       C84          C  0.5609844  0.6890156  0.3750000    0.00000       Uiso       1.00
       C85          C  0.4390156  0.1890156  0.6250000    0.00000       Uiso       1.00
       C86          C  0.9390156  0.6890156  0.1250000    0.00000       Uiso       1.00
       C87          C  0.0609844  0.8109844  0.1250000    0.00000       Uiso       1.00
       C88          C  0.5609844  0.3109844  0.6250000    0.00000       Uiso       1.00
       C89          C  0.5609844  0.1890156  0.6250000    0.00000       Uiso       1.00
       C90          C  0.0609844  0.6890156  0.1250000    0.00000       Uiso       1.00
       C91          C  0.9390156  0.8109844  0.1250000    0.00000       Uiso       1.00
       C92          C  0.4390156  0.3109844  0.6250000    0.00000       Uiso       1.00
       C93          C  0.5609844  0.8109844  0.3750000    0.00000       Uiso       1.00
       C94          C  0.0609844  0.3109844  0.8749999    0.00000       Uiso       1.00
       C95          C  0.9390156  0.1890156  0.8749999    0.00000       Uiso       1.00
       C96          C  0.4390156  0.6890156  0.3750000    0.00000       Uiso       1.00
       C97          C  0.2500000  0.8200952  0.2500000    0.00000       Uiso       1.00
       H33          H  0.2500000  0.8730470  0.2500000    0.00000       Uiso       1.00
       C98          C  0.7500000  0.3200952  0.7500000    0.00000       Uiso       1.00
       H34          H  0.7500000  0.3730470  0.7500000    0.00000       Uiso       1.00
       C99          C  0.2500000  0.1799048  0.7500000    0.00000       Uiso       1.00
       H35          H  0.2500000  0.1269530  0.7500000    0.00000       Uiso       1.00
      C100          C  0.7500000  0.6799048  0.2500000    0.00000       Uiso       1.00
       H36          H  0.7500000  0.6269531  0.2500000    0.00000       Uiso       1.00
      C101          C  0.4299048  0.0000000  0.5000000    0.00000       Uiso       1.00
       H37          H  0.3769530  0.0000000  0.5000000    0.00000       Uiso       1.00
      C102          C  0.9299048  0.5000000  0.0000000    0.00000       Uiso       1.00
       H38          H  0.8769530  0.5000000  0.0000000    0.00000       Uiso       1.00
      C103          C  0.0700952  0.0000000  0.0000000    0.00000       Uiso       1.00
       H39          H  0.1230470  0.0000000  0.0000000    0.00000       Uiso       1.00
      C104          C  0.5700952  0.5000000  0.5000000    0.00000       Uiso       1.00
       H40          H  0.6230470  0.5000000  0.5000000    0.00000       Uiso       1.00
      C105          C  0.7500000  0.1799048  0.7500000    0.00000       Uiso       1.00
       H41          H  0.7500000  0.1269530  0.7500000    0.00000       Uiso       1.00
      C106          C  0.2500000  0.6799048  0.2500000    0.00000       Uiso       1.00
       H42          H  0.2500000  0.6269531  0.2500000    0.00000       Uiso       1.00
      C107          C  0.7500000  0.8200952  0.2500000    0.00000       Uiso       1.00
       H43          H  0.7500000  0.8730470  0.2500000    0.00000       Uiso       1.00
      C108          C  0.2500000  0.3200952  0.7500000    0.00000       Uiso       1.00
       H44          H  0.2500000  0.3730470  0.7500000    0.00000       Uiso       1.00
      C109          C  0.5700952  0.0000000  0.5000000    0.00000       Uiso       1.00
       H45          H  0.6230470  0.0000000  0.5000000    0.00000       Uiso       1.00
      C110          C  0.0700952  0.5000000  0.0000000    0.00000       Uiso       1.00
       H46          H  0.1230470  0.5000000  0.0000000    0.00000       Uiso       1.00
      C111          C  0.9299048  0.0000000  0.0000000    0.00000       Uiso       1.00
       H47          H  0.8769530  0.0000000  0.0000000    0.00000       Uiso       1.00
      C112          C  0.4299048  0.5000000  0.5000000    0.00000       Uiso       1.00
       H48          H  0.3769530  0.5000000  0.5000000    0.00000       Uiso       1.00
      C113          C  0.5000000  0.7500000  0.4301578    0.00000       Uiso       1.00
      C114          C  0.0000000  0.2500000  0.9301578    0.00000       Uiso       1.00
      C115          C  0.5000000  0.2500000  0.6801578    0.00000       Uiso       1.00
      C116          C  0.0000000  0.7500000  0.1801579    0.00000       Uiso       1.00
      C117          C  0.0000000  0.7500000  0.0698421    0.00000       Uiso       1.00
      C118          C  0.5000000  0.2500000  0.5698421    0.00000       Uiso       1.00
      C119          C  0.0000000  0.2500000  0.8198421    0.00000       Uiso       1.00
      C120          C  0.5000000  0.7500000  0.3198421    0.00000       Uiso       1.00
       H49          H  0.5000000  0.7327374  0.4628060    0.00000       Uiso       1.00
       H50          H  0.0000000  0.2327375  0.9628060    0.00000       Uiso       1.00
       H51          H  0.0000000  0.2672626  0.9628060    0.00000       Uiso       1.00
       H52          H  0.5000000  0.7672626  0.4628060    0.00000       Uiso       1.00
       H53          H  0.5172626  0.2500000  0.7128060    0.00000       Uiso       1.00
       H54          H  0.9827374  0.7500000  0.2128060    0.00000       Uiso       1.00
       H55          H  0.0000000  0.7327374  0.0371939    0.00000       Uiso       1.00
       H56          H  0.5000000  0.2327375  0.5371940    0.00000       Uiso       1.00
       H57          H  0.5000000  0.2672626  0.5371940    0.00000       Uiso       1.00
       H58          H  0.0000000  0.7672626  0.0371939    0.00000       Uiso       1.00
       H59          H  0.9827374  0.2500000  0.7871939    0.00000       Uiso       1.00
       H60          H  0.5172626  0.7500000  0.2871939    0.00000       Uiso       1.00
       H61          H  0.4827374  0.7500000  0.2871939    0.00000       Uiso       1.00
       H62          H  0.0172626  0.2500000  0.7871939    0.00000       Uiso       1.00
       H63          H  0.0172626  0.7500000  0.2128060    0.00000       Uiso       1.00
       H64          H  0.4827374  0.2500000  0.7128060    0.00000       Uiso       1.00
