data_PI-COF-4-2P
_audit_creation_date              0000-00-00
_audit_creation_method            'LanYouShi'
_symmetry_space_group_name_H-M    'P1'
_cell_length_a                    15.4200001
_cell_length_b                    15.4200001
_cell_length_c                    14.0600004
_cell_angle_alpha                 90.0000000
_cell_angle_beta                  90.0000000
_cell_angle_gamma                 90.0000000
loop_
_atom_site_label
_atom_site_type_symbol
_atom_site_fract_x
_atom_site_fract_y
_atom_site_fract_z
_atom_site_U_iso_or_equiv
_atom_site_adp_type
_atom_site_occupancy
        C1          C  0.9406300  0.0593700  0.5635100    0.00000       Uiso       1.00
        C3          C  0.8772600  0.1227400  0.7200199    0.00000       Uiso       1.00
        C4          C  0.8129500  0.1870500  0.7475300    0.00000       Uiso       1.00
        C5          C  0.8244800  0.1755100  0.5874400    0.00000       Uiso       1.00
        C6          C  0.7797100  0.2202900  0.6639699    0.00000       Uiso       1.00
        C7          C  0.7845900  0.2154100  0.8370200    0.00000       Uiso       1.00
        O1          O  0.9195300  0.0804700  0.7765999    0.00000       Uiso       1.00
        O2          O  0.8113000  0.1887000  0.5032400    0.00000       Uiso       1.00
        N1          N  0.8835900  0.1164100  0.6222900    0.00000       Uiso       1.00
        H1          H  0.9611100  0.1591000  0.4531900    0.00000       Uiso       1.00
        H3          H  0.8106100  0.1893900  0.9025200    0.00000       Uiso       1.00
        C1          C  0.0593700  0.9406300  0.5635100    0.00000       Uiso       1.00
        C2          C  0.0000000  0.8838400  0.5000000    0.00000       Uiso       1.00
        C3          C  0.1227400  0.8772600  0.7200199    0.00000       Uiso       1.00
        C4          C  0.1870500  0.8129500  0.7475300    0.00000       Uiso       1.00
        C5          C  0.1755200  0.8244900  0.5874400    0.00000       Uiso       1.00
        C6          C  0.2202900  0.7797100  0.6639699    0.00000       Uiso       1.00
        C7          C  0.2154100  0.7845900  0.8370200    0.00000       Uiso       1.00
        O1          O  0.0804700  0.9195300  0.7765999    0.00000       Uiso       1.00
        O2          O  0.1887000  0.8113000  0.5032400    0.00000       Uiso       1.00
        N1          N  0.1164100  0.8835900  0.6222900    0.00000       Uiso       1.00
        H1          H  0.0388900  0.8409000  0.4531900    0.00000       Uiso       1.00
        H3          H  0.1893900  0.8106100  0.9025200    0.00000       Uiso       1.00
        C1          C  0.4406300  0.4406300  0.0635100    0.00000       Uiso       1.00
        C2          C  0.5593700  0.5593700  0.0635100    0.00000       Uiso       1.00
        C3          C  0.3838400  0.5000000  0.0000000    0.00000       Uiso       1.00
        C4          C  0.6161600  0.5000000  0.0000000    0.00000       Uiso       1.00
        C5          C  0.3772600  0.3772600  0.2200200    0.00000       Uiso       1.00
        C6          C  0.6227400  0.6227400  0.2200200    0.00000       Uiso       1.00
        C7          C  0.3129500  0.3129500  0.2475300    0.00000       Uiso       1.00
        C8          C  0.6870500  0.6870500  0.2475300    0.00000       Uiso       1.00
        C9          C  0.3244900  0.3244800  0.0874400    0.00000       Uiso       1.00
       C10          C  0.6755100  0.6755200  0.0874400    0.00000       Uiso       1.00
       C11          C  0.2797100  0.2797100  0.1639700    0.00000       Uiso       1.00
       C12          C  0.7202900  0.7202900  0.1639700    0.00000       Uiso       1.00
       C13          C  0.2845900  0.2845900  0.3370200    0.00000       Uiso       1.00
       C14          C  0.7154100  0.7154100  0.3370200    0.00000       Uiso       1.00
        O1          O  0.4195300  0.4195300  0.2766000    0.00000       Uiso       1.00
        O2          O  0.5804700  0.5804700  0.2766000    0.00000       Uiso       1.00
        O3          O  0.3113000  0.3113000  0.0032400    0.00000       Uiso       1.00
        O4          O  0.6887000  0.6887000  0.0032400    0.00000       Uiso       1.00
        N1          N  0.3835900  0.3835900  0.1222900    0.00000       Uiso       1.00
        N2          N  0.6164100  0.6164100  0.1222900    0.00000       Uiso       1.00
        H1          H  0.3409000  0.5388900  0.0468100    0.00000       Uiso       1.00
        H2          H  0.6590999  0.4611100  0.0468100    0.00000       Uiso       1.00
        H3          H  0.3106100  0.3106100  0.4025200    0.00000       Uiso       1.00
        H4          H  0.6893900  0.6893900  0.4025200    0.00000       Uiso       1.00
        H5          H  0.0417200  0.0417200  0.6707500    0.00000       Uiso       1.00
        H6          H  0.9582800  0.9582800  0.6707500    0.00000       Uiso       1.00
       C15          C  0.5000000  0.5000000  0.1252300    0.00000       Uiso       1.00
        C1          C  0.5593700  0.4406300  0.9364900    0.00000       Uiso       1.00
        C2          C  0.4406300  0.5593700  0.9364900    0.00000       Uiso       1.00
        C3          C  0.6227400  0.3772600  0.7799799    0.00000       Uiso       1.00
        C4          C  0.3772600  0.6227400  0.7799799    0.00000       Uiso       1.00
        C5          C  0.6870500  0.3129500  0.7524700    0.00000       Uiso       1.00
        C6          C  0.3129500  0.6870500  0.7524700    0.00000       Uiso       1.00
        C7          C  0.6755200  0.3244900  0.9125599    0.00000       Uiso       1.00
        C8          C  0.3244800  0.6755100  0.9125599    0.00000       Uiso       1.00
        C9          C  0.7202900  0.2797100  0.8360299    0.00000       Uiso       1.00
       C10          C  0.2797100  0.7202900  0.8360299    0.00000       Uiso       1.00
       C11          C  0.7154100  0.2845900  0.6629800    0.00000       Uiso       1.00
       C12          C  0.2845900  0.7154100  0.6629800    0.00000       Uiso       1.00
        O1          O  0.5804700  0.4195300  0.7234000    0.00000       Uiso       1.00
        O2          O  0.4195300  0.5804700  0.7234000    0.00000       Uiso       1.00
        O3          O  0.6887000  0.3113000  0.9967600    0.00000       Uiso       1.00
        O4          O  0.3113000  0.6887000  0.9967600    0.00000       Uiso       1.00
        N1          N  0.6164100  0.3835900  0.8777099    0.00000       Uiso       1.00
        N2          N  0.3835900  0.6164100  0.8777099    0.00000       Uiso       1.00
        H1          H  0.4611100  0.3409000  0.9531900    0.00000       Uiso       1.00
        H2          H  0.5388900  0.6590999  0.9531900    0.00000       Uiso       1.00
        H3          H  0.6893900  0.3106100  0.5974800    0.00000       Uiso       1.00
        H4          H  0.3106100  0.6893900  0.5974800    0.00000       Uiso       1.00
        H5          H  0.9582800  0.0417200  0.3292500    0.00000       Uiso       1.00
        H6          H  0.0417200  0.9582800  0.3292500    0.00000       Uiso       1.00
       C13          C  0.5000000  0.5000000  0.8747699    0.00000       Uiso       1.00
        C1          C  0.0593700  0.0593700  0.4364900    0.00000       Uiso       1.00
        C2          C  0.1161600  0.0000000  0.5000000    0.00000       Uiso       1.00
        C3          C  0.1227400  0.1227400  0.2799800    0.00000       Uiso       1.00
        C4          C  0.1870500  0.1870500  0.2524700    0.00000       Uiso       1.00
        C5          C  0.1755100  0.1755200  0.4125600    0.00000       Uiso       1.00
        C6          C  0.2202900  0.2202900  0.3360300    0.00000       Uiso       1.00
        C7          C  0.2154100  0.2154100  0.1629800    0.00000       Uiso       1.00
        O1          O  0.0804700  0.0804700  0.2234000    0.00000       Uiso       1.00
        O2          O  0.1887000  0.1887000  0.4967600    0.00000       Uiso       1.00
        N1          N  0.1164100  0.1164100  0.3777100    0.00000       Uiso       1.00
        H1          H  0.1591000  0.0388900  0.5468100    0.00000       Uiso       1.00
        H3          H  0.1893900  0.1893900  0.0974800    0.00000       Uiso       1.00
        C9          C  0.0000000  0.0000000  0.3747700    0.00000       Uiso       1.00
        C1          C  0.9406300  0.9406300  0.4364900    0.00000       Uiso       1.00
        C3          C  0.8772600  0.8772600  0.2799800    0.00000       Uiso       1.00
        C4          C  0.8129500  0.8129500  0.2524700    0.00000       Uiso       1.00
        C5          C  0.8244900  0.8244800  0.4125600    0.00000       Uiso       1.00
        C6          C  0.7797100  0.7797100  0.3360300    0.00000       Uiso       1.00
        C7          C  0.7845900  0.7845900  0.1629800    0.00000       Uiso       1.00
        O1          O  0.9195300  0.9195300  0.2234000    0.00000       Uiso       1.00
        O2          O  0.8113000  0.8113000  0.4967600    0.00000       Uiso       1.00
        N1          N  0.8835900  0.8835900  0.3777100    0.00000       Uiso       1.00
        H1          H  0.8409000  0.9611100  0.5468100    0.00000       Uiso       1.00
        H3          H  0.8106100  0.8106100  0.0974800    0.00000       Uiso       1.00
        C2          C  0.0000000  0.1161600  0.5000000    0.00000       Uiso       1.00
        H2          H  0.0388900  0.1591000  0.5468100    0.00000       Uiso       1.00
        C9          C  0.0000000  0.0000000  0.6252300    0.00000       Uiso       1.00
        C1          C  0.5000000  0.3838400  0.0000000    0.00000       Uiso       1.00
        C2          C  0.5000000  0.6161600  0.0000000    0.00000       Uiso       1.00
        H1          H  0.5388900  0.3409000  0.0468100    0.00000       Uiso       1.00
        H2          H  0.4611100  0.6590999  0.0468100    0.00000       Uiso       1.00
        C2          C  0.8838400  0.0000000  0.5000000    0.00000       Uiso       1.00
        H2          H  0.8409000  0.0388900  0.4531900    0.00000       Uiso       1.00
        H1          H  0.3409000  0.4611100  0.9531900    0.00000       Uiso       1.00
        H2          H  0.6590999  0.5388900  0.9531900    0.00000       Uiso       1.00
        H2          H  0.9611100  0.8409000  0.5468100    0.00000       Uiso       1.00
        H2          H  0.1591000  0.9611100  0.4531900    0.00000       Uiso       1.00
        H4          H  0.5417200  0.4582800  0.1707500    0.00000       Uiso       1.00
        H4          H  0.4582800  0.5417200  0.1707500    0.00000       Uiso       1.00
        H4          H  0.4582800  0.4582800  0.8292500    0.00000       Uiso       1.00
        H4          H  0.5417200  0.5417200  0.8292500    0.00000       Uiso       1.00
