data_AzO-COF
_audit_creation_date              0000-00-00
_audit_creation_method            'LanYouShi'
_symmetry_space_group_name_H-M    'P1'
_cell_length_a                    41.1981010
_cell_length_b                    41.1981010
_cell_length_c                    3.4999001
_cell_angle_alpha                 90.0000000
_cell_angle_beta                  90.0000000
_cell_angle_gamma                 120.0000000
loop_
_atom_site_label
_atom_site_type_symbol
_atom_site_fract_x
_atom_site_fract_y
_atom_site_fract_z
_atom_site_U_iso_or_equiv
_atom_site_adp_type
_atom_site_occupancy
        C1          C  0.7021869  0.3347335  0.5000021    0.00000       Uiso       1.00
        C2          C  0.7007076  0.3689233  0.5000021    0.00000       Uiso       1.00
        C3          C  0.7353288  0.4037838  0.5000021    0.00000       Uiso       1.00
        C4          C  0.7381995  0.3374335  0.5000021    0.00000       Uiso       1.00
        C5          C  0.7697389  0.4049245  0.5000021    0.00000       Uiso       1.00
        C6          C  0.7711581  0.3721170  0.5000021    0.00000       Uiso       1.00
        C1          C  0.6682153  0.2992920  0.5000021    0.00000       Uiso       1.00
        C2          C  0.6325462  0.2978126  0.5000021    0.00000       Uiso       1.00
        C3          C  0.5992335  0.2618001  0.5000021    0.00000       Uiso       1.00
        C4          C  0.6684546  0.2646707  0.5000021    0.00000       Uiso       1.00
        C5          C  0.6009583  0.2288414  0.5000021    0.00000       Uiso       1.00
        C6          C  0.6351852  0.2302606  0.5000021    0.00000       Uiso       1.00
        C1          C  0.6652660  0.3674534  0.5000021    0.00000       Uiso       1.00
        C2          C  0.6310762  0.3317843  0.5000021    0.00000       Uiso       1.00
        C3          C  0.5962157  0.3315450  0.5000021    0.00000       Uiso       1.00
        C4          C  0.6625661  0.4007660  0.5000021    0.00000       Uiso       1.00
        C5          C  0.5950750  0.3648143  0.5000021    0.00000       Uiso       1.00
        C6          C  0.6278826  0.3990412  0.5000021    0.00000       Uiso       1.00
        C1          C  0.2978126  0.6652660  0.5000021    0.00000       Uiso       1.00
        C2          C  0.2992920  0.6310763  0.5000021    0.00000       Uiso       1.00
        C3          C  0.2646708  0.5962157  0.5000021    0.00000       Uiso       1.00
        C4          C  0.2618001  0.6625661  0.5000021    0.00000       Uiso       1.00
        C5          C  0.2302606  0.5950750  0.5000021    0.00000       Uiso       1.00
        C6          C  0.2288414  0.6278826  0.5000021    0.00000       Uiso       1.00
        C1          C  0.3317842  0.7007076  0.5000021    0.00000       Uiso       1.00
        C2          C  0.3674534  0.7021869  0.5000021    0.00000       Uiso       1.00
        C3          C  0.4007660  0.7381995  0.5000021    0.00000       Uiso       1.00
        C4          C  0.3315450  0.7353288  0.5000021    0.00000       Uiso       1.00
        C5          C  0.3990412  0.7711581  0.5000021    0.00000       Uiso       1.00
        C6          C  0.3648143  0.7697389  0.5000021    0.00000       Uiso       1.00
        C1          C  0.3347335  0.6325462  0.5000021    0.00000       Uiso       1.00
        C2          C  0.3689233  0.6682153  0.5000021    0.00000       Uiso       1.00
        C3          C  0.4037838  0.6684545  0.5000021    0.00000       Uiso       1.00
        C4          C  0.3374335  0.5992335  0.5000021    0.00000       Uiso       1.00
        C5          C  0.4049245  0.6351852  0.5000021    0.00000       Uiso       1.00
        C6          C  0.3721170  0.6009583  0.5000021    0.00000       Uiso       1.00
        O1          O  0.8069531  0.3794279  0.5000021    0.00000       Uiso       1.00
        O1          O  0.6306118  0.1954569  0.5000021    0.00000       Uiso       1.00
        O1          O  0.6205716  0.4275252  0.5000021    0.00000       Uiso       1.00
        O1          O  0.8045427  0.4351550  0.5000021    0.00000       Uiso       1.00
        O1          O  0.5724744  0.1930464  0.5000021    0.00000       Uiso       1.00
        O1          O  0.5648445  0.3693877  0.5000021    0.00000       Uiso       1.00
        O1          O  0.1930464  0.6205716  0.5000021    0.00000       Uiso       1.00
        O1          O  0.3693877  0.8045427  0.5000021    0.00000       Uiso       1.00
        O1          O  0.3794279  0.5724744  0.5000021    0.00000       Uiso       1.00
        O1          O  0.1954569  0.5648445  0.5000021    0.00000       Uiso       1.00
        O1          O  0.4275252  0.8069531  0.5000021    0.00000       Uiso       1.00
        O1          O  0.4351550  0.6306118  0.5000021    0.00000       Uiso       1.00
        B1          B  0.8292119  0.4197685  0.5000021    0.00000       Uiso       1.00
        B1          B  0.5802310  0.4094433  0.5000021    0.00000       Uiso       1.00
        B1          B  0.5905562  0.1707876  0.5000021    0.00000       Uiso       1.00
        B1          B  0.1707876  0.5802310  0.5000021    0.00000       Uiso       1.00
        B1          B  0.4197686  0.5905562  0.5000021    0.00000       Uiso       1.00
        B1          B  0.4094433  0.8292119  0.5000021    0.00000       Uiso       1.00
        H1          H  0.7370813  0.4292409  0.5000021    0.00000       Uiso       1.00
        H2          H  0.5729163  0.2579729  0.5000021    0.00000       Uiso       1.00
        H3          H  0.5707587  0.3078404  0.5000021    0.00000       Uiso       1.00
        H4          H  0.7420266  0.3149435  0.5000021    0.00000       Uiso       1.00
        H5          H  0.6921591  0.2629183  0.5000021    0.00000       Uiso       1.00
        H6          H  0.6850561  0.4270832  0.5000021    0.00000       Uiso       1.00
        H1          H  0.2629183  0.5707587  0.5000021    0.00000       Uiso       1.00
        H2          H  0.4270832  0.7420266  0.5000021    0.00000       Uiso       1.00
        H3          H  0.4292409  0.6921591  0.5000021    0.00000       Uiso       1.00
        H4          H  0.2579729  0.6850561  0.5000021    0.00000       Uiso       1.00
        H5          H  0.3078404  0.7370812  0.5000021    0.00000       Uiso       1.00
        H6          H  0.3149434  0.5729164  0.5000021    0.00000       Uiso       1.00
        C1          C  0.1291344  0.5580829  0.5000021    0.00000       Uiso       1.00
        C2          C  0.1078525  0.5763188  0.5000021    0.00000       Uiso       1.00
        C3          C  0.1103450  0.5185418  0.5000021    0.00000       Uiso       1.00
        C4          C  0.0684490  0.5553546  0.5000021    0.00000       Uiso       1.00
        C5          C  0.0709385  0.4976091  0.5000021    0.00000       Uiso       1.00
        C6          C  0.0496117  0.5157472  0.5000021    0.00000       Uiso       1.00
        N1          N  0.0118896  0.4940320  0.5000021    0.00000       Uiso       1.00
        C1          C  0.4419166  0.5710509  0.5000021    0.00000       Uiso       1.00
        C2          C  0.5580830  0.4289486  0.5000021    0.00000       Uiso       1.00
        C3          C  0.4236808  0.5315332  0.5000021    0.00000       Uiso       1.00
        C4          C  0.4814578  0.5918027  0.5000021    0.00000       Uiso       1.00
        C5          C  0.5763187  0.4684663  0.5000021    0.00000       Uiso       1.00
        C6          C  0.5185418  0.4081968  0.5000021    0.00000       Uiso       1.00
        C7          C  0.4446449  0.5130939  0.5000021    0.00000       Uiso       1.00
        C8          C  0.5023904  0.5733289  0.5000021    0.00000       Uiso       1.00
        C9          C  0.5553546  0.4869056  0.5000021    0.00000       Uiso       1.00
       C10          C  0.4976091  0.4266706  0.5000021    0.00000       Uiso       1.00
       C11          C  0.4842523  0.5338641  0.5000021    0.00000       Uiso       1.00
       C12          C  0.5157472  0.4661355  0.5000021    0.00000       Uiso       1.00
        N1          N  0.4940320  0.4821424  0.5000021    0.00000       Uiso       1.00
        N2          N  0.5059676  0.5178572  0.5000021    0.00000       Uiso       1.00
        C1          C  0.4289486  0.8708652  0.5000021    0.00000       Uiso       1.00
        C2          C  0.4081968  0.8896545  0.5000021    0.00000       Uiso       1.00
        C3          C  0.4684663  0.8921471  0.5000021    0.00000       Uiso       1.00
        C4          C  0.4266706  0.9290610  0.5000021    0.00000       Uiso       1.00
        C5          C  0.4869056  0.9315505  0.5000021    0.00000       Uiso       1.00
        C6          C  0.4661355  0.9503878  0.5000021    0.00000       Uiso       1.00
        N1          N  0.4821423  0.9881099  0.5000021    0.00000       Uiso       1.00
        C1          C  0.8708652  0.4419166  0.5000021    0.00000       Uiso       1.00
        C2          C  0.8921471  0.4236808  0.5000021    0.00000       Uiso       1.00
        C3          C  0.8896546  0.4814578  0.5000021    0.00000       Uiso       1.00
        C4          C  0.9315505  0.4446449  0.5000021    0.00000       Uiso       1.00
        C5          C  0.9290611  0.5023904  0.5000021    0.00000       Uiso       1.00
        C6          C  0.9503878  0.4842523  0.5000021    0.00000       Uiso       1.00
        N1          N  0.9881099  0.5059676  0.5000021    0.00000       Uiso       1.00
        C1          C  0.5710509  0.1291344  0.5000021    0.00000       Uiso       1.00
        C2          C  0.5918027  0.1103450  0.5000021    0.00000       Uiso       1.00
        C3          C  0.5315332  0.1078525  0.5000021    0.00000       Uiso       1.00
        C4          C  0.5733289  0.0709385  0.5000021    0.00000       Uiso       1.00
        C5          C  0.5130939  0.0684490  0.5000021    0.00000       Uiso       1.00
        C6          C  0.5338640  0.0496117  0.5000021    0.00000       Uiso       1.00
        N1          N  0.5178572  0.0118896  0.5000021    0.00000       Uiso       1.00
        H1          H  0.1207595  0.6049523  0.5000021    0.00000       Uiso       1.00
        H2          H  0.1250847  0.5046061  0.5000021    0.00000       Uiso       1.00
        H3          H  0.0536625  0.5692211  0.5000021    0.00000       Uiso       1.00
        H4          H  0.0578944  0.4689583  0.5000021    0.00000       Uiso       1.00
        H1          H  0.3795214  0.8749148  0.5000021    0.00000       Uiso       1.00
        H2          H  0.4841928  0.8792400  0.5000021    0.00000       Uiso       1.00
        H3          H  0.4110638  0.9421052  0.5000021    0.00000       Uiso       1.00
        H4          H  0.5155585  0.9463370  0.5000021    0.00000       Uiso       1.00
        H1          H  0.3950472  0.5158068  0.5000021    0.00000       Uiso       1.00
        H2          H  0.4953934  0.6204782  0.5000021    0.00000       Uiso       1.00
        H3          H  0.6049523  0.4841928  0.5000021    0.00000       Uiso       1.00
        H4          H  0.5046061  0.3795214  0.5000021    0.00000       Uiso       1.00
        H5          H  0.4307784  0.4844410  0.5000021    0.00000       Uiso       1.00
        H6          H  0.5310413  0.5889357  0.5000021    0.00000       Uiso       1.00
        H7          H  0.5692211  0.5155586  0.5000021    0.00000       Uiso       1.00
        H8          H  0.4689583  0.4110638  0.5000021    0.00000       Uiso       1.00
        H1          H  0.8792400  0.3950472  0.5000021    0.00000       Uiso       1.00
        H2          H  0.8749149  0.4953935  0.5000021    0.00000       Uiso       1.00
        H3          H  0.9463370  0.4307785  0.5000021    0.00000       Uiso       1.00
        H4          H  0.9421051  0.5310413  0.5000021    0.00000       Uiso       1.00
        H1          H  0.6204782  0.1250847  0.5000021    0.00000       Uiso       1.00
        H2          H  0.5158068  0.1207595  0.5000021    0.00000       Uiso       1.00
        H3          H  0.5889357  0.0578944  0.5000021    0.00000       Uiso       1.00
        H4          H  0.4844410  0.0536625  0.5000021    0.00000       Uiso       1.00
