data_PI-COF-5-0P
_audit_creation_date              0000-00-00
_audit_creation_method            'LanYouShi'
_symmetry_space_group_name_H-M    'P1'
_cell_length_a                    30.8041992
_cell_length_b                    30.8041992
_cell_length_c                    30.8041992
_cell_angle_alpha                 124.1845016
_cell_angle_beta                  124.1845016
_cell_angle_gamma                 82.8933029
loop_
_atom_site_label
_atom_site_type_symbol
_atom_site_fract_x
_atom_site_fract_y
_atom_site_fract_z
_atom_site_U_iso_or_equiv
_atom_site_adp_type
_atom_site_occupancy
        H1          H  0.3937820  0.4813020  0.9571925    0.00000       Uiso       1.00
        C1          C  0.4408867  0.3220567  0.8807122    0.00000       Uiso       1.00
        C2          C  0.4336767  0.2325266  0.8644522    0.00000       Uiso       1.00
        C3          C  0.4059766  0.1747665  0.8102221    0.00000       Uiso       1.00
        C4          C  0.3863865  0.2269465  0.7744920    0.00000       Uiso       1.00
        C5          C  0.3761465  0.1712464  0.7534720    0.00000       Uiso       1.00
        C6          C  0.4061115  0.1286715  0.8091921    0.00000       Uiso       1.00
        C7          C  0.4048756  0.5270755  0.0506001    0.00000       Uiso       1.00
        C8          C  0.4801258  0.5226554  0.0429201    0.00000       Uiso       1.00
        C9          C  0.4239156  0.5084454  0.0129900    0.00000       Uiso       1.00
       C10          C  0.4974659  0.5738856  0.1493004    0.00000       Uiso       1.00
       C11          C  0.5165759  0.5552756  0.1117603    0.00000       Uiso       1.00
        O1          O  0.4638218  0.2512018  0.9222324    0.00000       Uiso       1.00
        O2          O  0.3667715  0.2397514  0.7375919    0.00000       Uiso       1.00
        N1          N  0.4212517  0.2632916  0.8417321    0.00000       Uiso       1.00
        H2          H  0.4313017  0.1335416  0.8571622    0.00000       Uiso       1.00
        H3          H  0.3590506  0.5150604  0.0248001    0.00000       Uiso       1.00
        H4          H  0.5281211  0.6005408  0.2050305    0.00000       Uiso       1.00
        H5          H  0.5623310  0.5665006  0.1368704    0.00000       Uiso       1.00
        H6          H  0.5241107  0.4365904  0.0428101    0.00000       Uiso       1.00
       C12          C  0.4413458  0.5601756  0.1192903    0.00000       Uiso       1.00
       C13          C  0.3680758  0.5692257  0.1355504    0.00000       Uiso       1.00
       C14          C  0.3645459  0.5957558  0.1897805    0.00000       Uiso       1.00
       C15          C  0.4524560  0.6118959  0.2255106    0.00000       Uiso       1.00
       C16          C  0.4177760  0.6226759  0.2465306    0.00000       Uiso       1.00
       C17          C  0.3194808  0.5969207  0.1908105    0.00000       Uiso       1.00
       C18          C  0.4764769  0.3542769  0.9494025    0.00000       Uiso       1.00
       C19          C  0.4797370  0.4372070  0.9570825    0.00000       Uiso       1.00
       C20          C  0.4954570  0.4109270  0.9870125    0.00000       Uiso       1.00
       C21          C  0.4245867  0.3481668  0.8507022    0.00000       Uiso       1.00
       C22          C  0.4435168  0.4048168  0.8882423    0.00000       Uiso       1.00
        O3          O  0.3289706  0.5415905  0.0777702    0.00000       Uiso       1.00
        O4          O  0.5021611  0.6291809  0.2624107    0.00000       Uiso       1.00
        N2          N  0.4215609  0.5795207  0.1582704    0.00000       Uiso       1.00
        H7          H  0.2763807  0.5741407  0.1428404    0.00000       Uiso       1.00
        H8          H  0.4902620  0.3342519  0.9752026    0.00000       Uiso       1.00
        H9          H  0.3955116  0.3230916  0.7949721    0.00000       Uiso       1.00
       H10          H  0.4296317  0.4254618  0.8631322    0.00000       Uiso       1.00
       H11          H  0.2313015  0.7741116  0.5875216    0.00000       Uiso       1.00
       C23          C  0.0720559  0.6913462  0.3811710    0.00000       Uiso       1.00
       C24          C  0.9825265  0.6180760  0.2988508    0.00000       Uiso       1.00
       C25          C  0.9247664  0.6145459  0.2687907    0.00000       Uiso       1.00
       C26          C  0.9769467  0.7024561  0.3405609    0.00000       Uiso       1.00
       C27          C  0.9212465  0.6677760  0.2951007    0.00000       Uiso       1.00
       C28          C  0.8786713  0.5694808  0.2225606    0.00000       Uiso       1.00
       C29          C  0.2770765  0.7264766  0.6222016    0.00000       Uiso       1.00
       C30          C  0.2726564  0.7297364  0.5425313    0.00000       Uiso       1.00
       C31          C  0.2584464  0.7454565  0.5845315    0.00000       Uiso       1.00
       C32          C  0.3238864  0.6745865  0.5764214    0.00000       Uiso       1.00
       C33          C  0.3052764  0.6935164  0.5387014    0.00000       Uiso       1.00
        O5          O  0.0012007  0.5789709  0.2873808    0.00000       Uiso       1.00
        O6          O  0.9897517  0.7521612  0.3729810    0.00000       Uiso       1.00
        N3          N  0.0132908  0.6715611  0.3420409    0.00000       Uiso       1.00
       H12          H  0.8835412  0.5263807  0.2022405    0.00000       Uiso       1.00
       H13          H  0.2650615  0.7402617  0.6560117    0.00000       Uiso       1.00
       H14          H  0.3505414  0.6455114  0.5724215    0.00000       Uiso       1.00
       H15          H  0.3165013  0.6796313  0.5041713    0.00000       Uiso       1.00
       H16          H  0.1865910  0.6437812  0.4124811    0.00000       Uiso       1.00
       C34          C  0.3101765  0.6908866  0.6188316    0.00000       Uiso       1.00
       C35          C  0.3192266  0.6836767  0.7011518    0.00000       Uiso       1.00
       C36          C  0.3457566  0.6559767  0.7312118    0.00000       Uiso       1.00
       C37          C  0.3618966  0.6363866  0.6594417    0.00000       Uiso       1.00
       C38          C  0.3726766  0.6261466  0.7049018    0.00000       Uiso       1.00
       C39          C  0.3469217  0.6561118  0.7774420    0.00000       Uiso       1.00
       C40          C  0.1042759  0.6548761  0.3778010    0.00000       Uiso       1.00
       C41          C  0.1872062  0.7301263  0.4574712    0.00000       Uiso       1.00
       C42          C  0.1609261  0.6739162  0.4154711    0.00000       Uiso       1.00
       C43          C  0.0981661  0.7474663  0.4235811    0.00000       Uiso       1.00
       C44          C  0.1548162  0.7665763  0.4613012    0.00000       Uiso       1.00
        O7          O  0.2915916  0.7138218  0.7126219    0.00000       Uiso       1.00
        O8          O  0.3791815  0.6167715  0.6270216    0.00000       Uiso       1.00
        N4          N  0.3295215  0.6712516  0.6579617    0.00000       Uiso       1.00
       H17          H  0.3241417  0.6813019  0.7977621    0.00000       Uiso       1.00
       H18          H  0.0842508  0.6090510  0.3439909    0.00000       Uiso       1.00
       H19          H  0.0730910  0.7781214  0.4275811    0.00000       Uiso       1.00
       H20          H  0.1754613  0.8123315  0.4958313    0.00000       Uiso       1.00
       H21          H  0.3562214  0.7687015  0.5428113    0.00000       Uiso       1.00
       C45          C  0.3091166  0.9279467  0.6192916    0.00000       Uiso       1.00
       C46          C  0.3163262  0.0174761  0.6355516    0.00000       Uiso       1.00
       C47          C  0.3440263  0.0752363  0.6897818    0.00000       Uiso       1.00
       C48          C  0.3636163  0.0230562  0.7255118    0.00000       Uiso       1.00
       C49          C  0.3738564  0.0787564  0.7465319    0.00000       Uiso       1.00
       C50          C  0.3438913  0.1213313  0.6908118    0.00000       Uiso       1.00
       C51          C  0.3451263  0.7229263  0.4494012    0.00000       Uiso       1.00
       C52          C  0.2698762  0.7273464  0.4570812    0.00000       Uiso       1.00
       C53          C  0.3260863  0.7415564  0.4870113    0.00000       Uiso       1.00
       C54          C  0.2525360  0.6761162  0.3507009    0.00000       Uiso       1.00
       C55          C  0.2334261  0.6947262  0.3882410    0.00000       Uiso       1.00
        O9          O  0.2861816  0.9988017  0.5777715    0.00000       Uiso       1.00
       O10          O  0.3832314  0.0102513  0.7624120    0.00000       Uiso       1.00
        N5          N  0.3287517  0.9867119  0.6582717    0.00000       Uiso       1.00
       H22          H  0.3187012  0.1164612  0.6428416    0.00000       Uiso       1.00
       H23          H  0.3909514  0.7349414  0.4752012    0.00000       Uiso       1.00
       H24          H  0.2218809  0.6494610  0.2949707    0.00000       Uiso       1.00
       H25          H  0.1876710  0.6835012  0.3631309    0.00000       Uiso       1.00
       H26          H  0.2258912  0.8134114  0.4571912    0.00000       Uiso       1.00
       C56          C  0.3086562  0.6898261  0.3807110    0.00000       Uiso       1.00
       C57          C  0.3819262  0.6807761  0.3644509    0.00000       Uiso       1.00
       C58          C  0.3854561  0.6542460  0.3102208    0.00000       Uiso       1.00
       C59          C  0.2975459  0.6381059  0.2744907    0.00000       Uiso       1.00
       C60          C  0.3322259  0.6273259  0.2534707    0.00000       Uiso       1.00
       C61          C  0.4305211  0.6530810  0.3091908    0.00000       Uiso       1.00
       C62          C  0.2735265  0.8957266  0.5506014    0.00000       Uiso       1.00
       C63          C  0.2702664  0.8127965  0.5429214    0.00000       Uiso       1.00
       C64          C  0.2545464  0.8390765  0.5129913    0.00000       Uiso       1.00
       C65          C  0.3254167  0.9018368  0.6493016    0.00000       Uiso       1.00
       C66          C  0.3064865  0.8451867  0.6117616    0.00000       Uiso       1.00
       O11          O  0.4210313  0.7084113  0.4222311    0.00000       Uiso       1.00
       O12          O  0.2478409  0.6208209  0.2375906    0.00000       Uiso       1.00
        N6          N  0.3284411  0.6704811  0.3417309    0.00000       Uiso       1.00
       H27          H  0.4736212  0.6758611  0.3571609    0.00000       Uiso       1.00
       H28          H  0.2597414  0.9157516  0.5248014    0.00000       Uiso       1.00
       H29          H  0.3544918  0.9269119  0.7050318    0.00000       Uiso       1.00
       H30          H  0.3203716  0.8245417  0.6368716    0.00000       Uiso       1.00
       H31          H  0.5187019  0.4758919  0.9124823    0.00000       Uiso       1.00
       C67          C  0.6779460  0.5586556  0.1188303    0.00000       Uiso       1.00
       C68          C  0.7674762  0.6319258  0.2011505    0.00000       Uiso       1.00
       C69          C  0.8252363  0.6354558  0.2312106    0.00000       Uiso       1.00
       C70          C  0.7730561  0.5475457  0.1594404    0.00000       Uiso       1.00
       C71          C  0.8287563  0.5822258  0.2049005    0.00000       Uiso       1.00
       C72          C  0.8713315  0.6805210  0.2774407    0.00000       Uiso       1.00
       C73          C  0.4729269  0.5235269  0.8778023    0.00000       Uiso       1.00
       C74          C  0.4773470  0.5202670  0.9574725    0.00000       Uiso       1.00
       C75          C  0.4915570  0.5045469  0.9154723    0.00000       Uiso       1.00
       C76          C  0.4261170  0.5754170  0.9235824    0.00000       Uiso       1.00
       C77          C  0.4447270  0.5564871  0.9613025    0.00000       Uiso       1.00
       O13          O  0.7488013  0.6710309  0.2126206    0.00000       Uiso       1.00
       O14          O  0.7602510  0.4978406  0.1270203    0.00000       Uiso       1.00
        N7          N  0.7367111  0.5784407  0.1579604    0.00000       Uiso       1.00
       H32          H  0.8664615  0.7236210  0.2977608    0.00000       Uiso       1.00
       H33          H  0.4849418  0.5097418  0.8439922    0.00000       Uiso       1.00
       H34          H  0.3994620  0.6044921  0.9275824    0.00000       Uiso       1.00
       H35          H  0.4335021  0.5703722  0.9958326    0.00000       Uiso       1.00
       H36          H  0.5634109  0.6062205  0.0875202    0.00000       Uiso       1.00
       C78          C  0.4398269  0.5591170  0.8811722    0.00000       Uiso       1.00
       C79          C  0.4307768  0.5663268  0.7988520    0.00000       Uiso       1.00
       C80          C  0.4042467  0.5940268  0.7687920    0.00000       Uiso       1.00
       C81          C  0.3881068  0.6136169  0.8405622    0.00000       Uiso       1.00
       C82          C  0.3773268  0.6238568  0.7951021    0.00000       Uiso       1.00
       C83          C  0.4030817  0.5938917  0.7225618    0.00000       Uiso       1.00
       C84          C  0.6457260  0.5951256  0.1222003    0.00000       Uiso       1.00
       C85          C  0.5627957  0.5198754  0.0425300    0.00000       Uiso       1.00
       C86          C  0.5890759  0.5760856  0.0845302    0.00000       Uiso       1.00
       C87          C  0.6518359  0.5025355  0.0764201    0.00000       Uiso       1.00
       C88          C  0.5951858  0.4834254  0.0387001    0.00000       Uiso       1.00
       O15          O  0.4584118  0.5361817  0.7873820    0.00000       Uiso       1.00
       O16          O  0.3708219  0.6332320  0.8729823    0.00000       Uiso       1.00
        N8          N  0.4204818  0.5787519  0.8420421    0.00000       Uiso       1.00
       H37          H  0.4258616  0.5687016  0.7022418    0.00000       Uiso       1.00
       H38          H  0.6657511  0.6409507  0.1560104    0.00000       Uiso       1.00
       H39          H  0.6769109  0.4718805  0.0724202    0.00000       Uiso       1.00
       H40          H  0.5745407  0.4376703  0.0041700    0.00000       Uiso       1.00
       C89          C  0.5000007  0.5000004  0.0000000    0.00000       Uiso       1.00
       C90          C  0.2500013  0.7500014  0.5000013    0.00000       Uiso       1.00
