data_crystal
 
_cell_length_a    30.80420
_cell_length_b    30.80420
_cell_length_c    30.80420
_cell_angle_alpha 124.18450
_cell_angle_beta  124.18450
_cell_angle_gamma 82.89330
 
_symmetry_space_group_name_Hall 'P 1'
_symmetry_space_group_name_H-M  'P 1'
 
loop_
_symmetry_equiv_pos_as_xyz
 'x,y,z' 
 
loop_
_atom_site_label
_atom_site_type_symbol
_atom_site_fract_x
_atom_site_fract_y
_atom_site_fract_z
_atom_site_charge
H          H       0.39378   0.48130   0.95719   0.0000000000
C          C       0.44089   0.32206   0.88071   0.0000000000
C          C       0.43368   0.23253   0.86445   0.0000000000
C          C       0.40598   0.17477   0.81022   0.0000000000
C          C       0.38639   0.22695   0.77449   0.0000000000
C          C       0.37615   0.17125   0.75347   0.0000000000
C          C       0.40611   0.12867   0.80919   0.0000000000
C          C       0.40488   0.52708   0.05060   0.0000000000
C          C       0.48013   0.52266   0.04292   0.0000000000
C          C       0.42392   0.50845   0.01299   0.0000000000
C          C       0.49747   0.57389   0.14930   0.0000000000
C          C       0.51658   0.55528   0.11176   0.0000000000
O          O       0.46382   0.25120   0.92223   0.0000000000
O          O       0.36677   0.23975   0.73759   0.0000000000
N          N       0.42125   0.26329   0.84173   0.0000000000
H          H       0.43130   0.13354   0.85716   0.0000000000
H          H       0.35905   0.51506   0.02480   0.0000000000
H          H       0.52812   0.60054   0.20503   0.0000000000
H          H       0.56233   0.56650   0.13687   0.0000000000
H          H       0.52411   0.43659   0.04281   0.0000000000
C          C       0.44135   0.56018   0.11929   0.0000000000
C          C       0.36808   0.56923   0.13555   0.0000000000
C          C       0.36455   0.59576   0.18978   0.0000000000
C          C       0.45246   0.61190   0.22551   0.0000000000
C          C       0.41778   0.62268   0.24653   0.0000000000
C          C       0.31948   0.59692   0.19081   0.0000000000
C          C       0.47648   0.35428   0.94940   0.0000000000
C          C       0.47974   0.43721   0.95708   0.0000000000
C          C       0.49546   0.41093   0.98701   0.0000000000
C          C       0.42459   0.34817   0.85070   0.0000000000
C          C       0.44352   0.40482   0.88824   0.0000000000
O          O       0.32897   0.54159   0.07777   0.0000000000
O          O       0.50216   0.62918   0.26241   0.0000000000
N          N       0.42156   0.57952   0.15827   0.0000000000
H          H       0.27638   0.57414   0.14284   0.0000000000
H          H       0.49026   0.33425   0.97520   0.0000000000
H          H       0.39551   0.32309   0.79497   0.0000000000
H          H       0.42963   0.42546   0.86313   0.0000000000
H          H       0.23130   0.77411   0.58752   0.0000000000
C          C       0.07206   0.69135   0.38117   0.0000000000
C          C       0.98253   0.61808   0.29885   0.0000000000
C          C       0.92477   0.61455   0.26879   0.0000000000
C          C       0.97695   0.70246   0.34056   0.0000000000
C          C       0.92125   0.66778   0.29510   0.0000000000
C          C       0.87867   0.56948   0.22256   0.0000000000
C          C       0.27708   0.72648   0.62220   0.0000000000
C          C       0.27266   0.72974   0.54253   0.0000000000
C          C       0.25845   0.74546   0.58453   0.0000000000
C          C       0.32389   0.67459   0.57642   0.0000000000
C          C       0.30528   0.69352   0.53870   0.0000000000
O          O       0.00120   0.57897   0.28738   0.0000000000
O          O       0.98975   0.75216   0.37298   0.0000000000
N          N       0.01329   0.67156   0.34204   0.0000000000
H          H       0.88354   0.52638   0.20224   0.0000000000
H          H       0.26506   0.74026   0.65601   0.0000000000
H          H       0.35054   0.64551   0.57242   0.0000000000
H          H       0.31650   0.67963   0.50417   0.0000000000
H          H       0.18659   0.64378   0.41248   0.0000000000
C          C       0.31018   0.69089   0.61883   0.0000000000
C          C       0.31923   0.68368   0.70115   0.0000000000
C          C       0.34576   0.65598   0.73121   0.0000000000
C          C       0.36190   0.63639   0.65944   0.0000000000
C          C       0.37268   0.62615   0.70490   0.0000000000
C          C       0.34692   0.65611   0.77744   0.0000000000
C          C       0.10428   0.65488   0.37780   0.0000000000
C          C       0.18721   0.73013   0.45747   0.0000000000
C          C       0.16093   0.67392   0.41547   0.0000000000
C          C       0.09817   0.74747   0.42358   0.0000000000
C          C       0.15482   0.76658   0.46130   0.0000000000
O          O       0.29159   0.71382   0.71262   0.0000000000
O          O       0.37918   0.61677   0.62702   0.0000000000
N          N       0.32952   0.67125   0.65796   0.0000000000
H          H       0.32414   0.68130   0.79776   0.0000000000
H          H       0.08425   0.60905   0.34399   0.0000000000
H          H       0.07309   0.77812   0.42758   0.0000000000
H          H       0.17546   0.81233   0.49583   0.0000000000
H          H       0.35622   0.76870   0.54281   0.0000000000
C          C       0.30912   0.92795   0.61929   0.0000000000
C          C       0.31633   0.01748   0.63555   0.0000000000
C          C       0.34403   0.07524   0.68978   0.0000000000
C          C       0.36362   0.02306   0.72551   0.0000000000
C          C       0.37386   0.07876   0.74653   0.0000000000
C          C       0.34389   0.12133   0.69081   0.0000000000
C          C       0.34513   0.72293   0.44940   0.0000000000
C          C       0.26988   0.72735   0.45708   0.0000000000
C          C       0.32609   0.74156   0.48701   0.0000000000
C          C       0.25254   0.67612   0.35070   0.0000000000
C          C       0.23343   0.69473   0.38824   0.0000000000
O          O       0.28618   0.99880   0.57777   0.0000000000
O          O       0.38323   0.01025   0.76241   0.0000000000
N          N       0.32875   0.98671   0.65827   0.0000000000
H          H       0.31870   0.11646   0.64284   0.0000000000
H          H       0.39095   0.73494   0.47520   0.0000000000
H          H       0.22188   0.64946   0.29497   0.0000000000
H          H       0.18767   0.68350   0.36313   0.0000000000
H          H       0.22589   0.81341   0.45719   0.0000000000
C          C       0.30866   0.68983   0.38071   0.0000000000
C          C       0.38193   0.68078   0.36445   0.0000000000
C          C       0.38546   0.65425   0.31022   0.0000000000
C          C       0.29755   0.63811   0.27449   0.0000000000
C          C       0.33223   0.62733   0.25347   0.0000000000
C          C       0.43052   0.65308   0.30919   0.0000000000
C          C       0.27353   0.89573   0.55060   0.0000000000
C          C       0.27027   0.81280   0.54292   0.0000000000
C          C       0.25455   0.83908   0.51299   0.0000000000
C          C       0.32542   0.90184   0.64930   0.0000000000
C          C       0.30649   0.84519   0.61176   0.0000000000
O          O       0.42103   0.70841   0.42223   0.0000000000
O          O       0.24784   0.62082   0.23759   0.0000000000
N          N       0.32844   0.67048   0.34173   0.0000000000
H          H       0.47362   0.67586   0.35716   0.0000000000
H          H       0.25974   0.91575   0.52480   0.0000000000
H          H       0.35449   0.92691   0.70503   0.0000000000
H          H       0.32037   0.82454   0.63687   0.0000000000
H          H       0.51870   0.47589   0.91248   0.0000000000
C          C       0.67795   0.55866   0.11883   0.0000000000
C          C       0.76748   0.63193   0.20115   0.0000000000
C          C       0.82524   0.63546   0.23121   0.0000000000
C          C       0.77306   0.54755   0.15944   0.0000000000
C          C       0.82876   0.58223   0.20490   0.0000000000
C          C       0.87133   0.68052   0.27744   0.0000000000
C          C       0.47293   0.52353   0.87780   0.0000000000
C          C       0.47735   0.52027   0.95747   0.0000000000
C          C       0.49156   0.50455   0.91547   0.0000000000
C          C       0.42612   0.57542   0.92358   0.0000000000
C          C       0.44473   0.55649   0.96130   0.0000000000
O          O       0.74880   0.67103   0.21262   0.0000000000
O          O       0.76025   0.49784   0.12702   0.0000000000
N          N       0.73671   0.57844   0.15796   0.0000000000
H          H       0.86646   0.72362   0.29776   0.0000000000
H          H       0.48494   0.50974   0.84399   0.0000000000
H          H       0.39946   0.60449   0.92758   0.0000000000
H          H       0.43350   0.57037   0.99583   0.0000000000
H          H       0.56341   0.60622   0.08752   0.0000000000
C          C       0.43983   0.55912   0.88117   0.0000000000
C          C       0.43078   0.56633   0.79885   0.0000000000
C          C       0.40425   0.59403   0.76879   0.0000000000
C          C       0.38811   0.61362   0.84056   0.0000000000
C          C       0.37733   0.62386   0.79510   0.0000000000
C          C       0.40308   0.59389   0.72256   0.0000000000
C          C       0.64573   0.59513   0.12220   0.0000000000
C          C       0.56280   0.51988   0.04253   0.0000000000
C          C       0.58908   0.57609   0.08453   0.0000000000
C          C       0.65184   0.50254   0.07642   0.0000000000
C          C       0.59519   0.48343   0.03870   0.0000000000
O          O       0.45841   0.53618   0.78738   0.0000000000
O          O       0.37082   0.63323   0.87298   0.0000000000
N          N       0.42048   0.57875   0.84204   0.0000000000
H          H       0.42586   0.56870   0.70224   0.0000000000
H          H       0.66575   0.64095   0.15601   0.0000000000
H          H       0.67691   0.47188   0.07242   0.0000000000
H          H       0.57454   0.43767   0.00417   0.0000000000
C          C       0.50000   0.50000   0.00000   0.0000000000
C          C       0.25000   0.75000   0.50000   0.0000000000
