data_crystal
 
_cell_length_a    17.27030
_cell_length_b    17.27030
_cell_length_c    17.27030
_cell_angle_alpha 90.00000
_cell_angle_beta  90.00000
_cell_angle_gamma 90.00000
 
_symmetry_space_group_name_Hall 'P 1'
_symmetry_space_group_name_H-M  'P 1'
 
loop_
_symmetry_equiv_pos_as_xyz
 'x,y,z' 
 
loop_
_atom_site_label
_atom_site_type_symbol
_atom_site_fract_x
_atom_site_fract_y
_atom_site_fract_z
_atom_site_charge
C          C       0.78058   0.06813   0.44779   0.0000000000
C          C       0.44779   0.78058   0.06813   0.0000000000
C          C       0.06813   0.44779   0.78058   0.0000000000
C          C       0.21942   0.93187   0.55221   0.0000000000
C          C       0.55221   0.21942   0.93187   0.0000000000
C          C       0.93187   0.55221   0.21942   0.0000000000
C          C       0.70865   0.11363   0.40105   0.0000000000
C          C       0.40105   0.70865   0.11363   0.0000000000
C          C       0.11363   0.40105   0.70865   0.0000000000
C          C       0.29135   0.88637   0.59895   0.0000000000
C          C       0.59895   0.29135   0.88637   0.0000000000
C          C       0.88637   0.59895   0.29135   0.0000000000
C          C       0.81670   0.10462   0.50978   0.0000000000
C          C       0.50978   0.81670   0.10462   0.0000000000
C          C       0.10462   0.50978   0.81670   0.0000000000
C          C       0.18330   0.89538   0.49022   0.0000000000
C          C       0.49022   0.18330   0.89538   0.0000000000
C          C       0.89538   0.49022   0.18330   0.0000000000
C          C       0.29802   0.71132   0.01580   0.0000000000
C          C       0.01580   0.29802   0.71132   0.0000000000
C          C       0.71132   0.01580   0.29802   0.0000000000
C          C       0.70198   0.28868   0.98420   0.0000000000
C          C       0.98420   0.70198   0.28868   0.0000000000
C          C       0.28868   0.98420   0.70198   0.0000000000
C          C       0.33190   0.67446   0.08573   0.0000000000
C          C       0.08573   0.33190   0.67446   0.0000000000
C          C       0.67446   0.08573   0.33190   0.0000000000
C          C       0.66810   0.32554   0.91427   0.0000000000
C          C       0.91427   0.66810   0.32554   0.0000000000
C          C       0.32554   0.91427   0.66810   0.0000000000
C          C       0.23583   0.67160   0.98750   0.0000000000
C          C       0.98750   0.23583   0.67160   0.0000000000
C          C       0.67160   0.98750   0.23583   0.0000000000
C          C       0.76417   0.32840   0.01250   0.0000000000
C          C       0.01250   0.76417   0.32840   0.0000000000
C          C       0.32840   0.01250   0.76417   0.0000000000
C          C       0.76589   0.97039   0.96464   0.0000000000
C          C       0.96464   0.76589   0.97039   0.0000000000
C          C       0.97039   0.96464   0.76589   0.0000000000
C          C       0.23411   0.02961   0.03536   0.0000000000
C          C       0.03536   0.23411   0.02961   0.0000000000
C          C       0.02961   0.03536   0.23411   0.0000000000
C          C       0.83794   0.94147   0.93521   0.0000000000
C          C       0.93521   0.83794   0.94147   0.0000000000
C          C       0.94147   0.93521   0.83794   0.0000000000
C          C       0.16206   0.05853   0.06479   0.0000000000
C          C       0.06479   0.16206   0.05853   0.0000000000
C          C       0.05853   0.06479   0.16206   0.0000000000
C          C       0.71632   0.92471   0.01186   0.0000000000
C          C       0.01186   0.71632   0.92471   0.0000000000
C          C       0.92471   0.01186   0.71632   0.0000000000
C          C       0.28368   0.07529   0.98814   0.0000000000
C          C       0.98814   0.28368   0.07529   0.0000000000
C          C       0.07529   0.98814   0.28368   0.0000000000
C          C       0.23924   0.31018   0.51945   0.0000000000
C          C       0.51945   0.23924   0.31018   0.0000000000
C          C       0.31018   0.51945   0.23924   0.0000000000
C          C       0.76076   0.68982   0.48055   0.0000000000
C          C       0.48055   0.76076   0.68982   0.0000000000
C          C       0.68982   0.48055   0.76076   0.0000000000
C          C       0.18962   0.33771   0.57700   0.0000000000
C          C       0.57700   0.18962   0.33771   0.0000000000
C          C       0.33771   0.57700   0.18962   0.0000000000
C          C       0.81038   0.66229   0.42300   0.0000000000
C          C       0.42300   0.81038   0.66229   0.0000000000
C          C       0.66229   0.42300   0.81038   0.0000000000
C          C       0.30245   0.34774   0.49502   0.0000000000
C          C       0.49502   0.30245   0.34774   0.0000000000
C          C       0.34774   0.49502   0.30245   0.0000000000
C          C       0.69755   0.65226   0.50498   0.0000000000
C          C       0.50498   0.69755   0.65226   0.0000000000
C          C       0.65226   0.50498   0.69755   0.0000000000
C          C       0.54525   0.42373   0.71653   0.0000000000
C          C       0.71653   0.54525   0.42373   0.0000000000
C          C       0.42373   0.71653   0.54525   0.0000000000
C          C       0.45475   0.57627   0.28347   0.0000000000
C          C       0.28347   0.45475   0.57627   0.0000000000
C          C       0.57627   0.28347   0.45475   0.0000000000
C          C       0.57978   0.48081   0.67936   0.0000000000
C          C       0.67936   0.57978   0.48081   0.0000000000
C          C       0.48081   0.67936   0.57978   0.0000000000
C          C       0.42022   0.51919   0.32064   0.0000000000
C          C       0.32064   0.42022   0.51919   0.0000000000
C          C       0.51919   0.32064   0.42022   0.0000000000
C          C       0.69684   0.39470   0.87929   0.0000000000
C          C       0.87929   0.69684   0.39470   0.0000000000
C          C       0.39470   0.87929   0.69684   0.0000000000
C          C       0.30316   0.60530   0.12071   0.0000000000
C          C       0.12071   0.30316   0.60530   0.0000000000
C          C       0.60530   0.12071   0.30316   0.0000000000
C          C       0.46611   0.20210   0.82307   0.0000000000
C          C       0.82307   0.46611   0.20210   0.0000000000
C          C       0.20210   0.82307   0.46611   0.0000000000
C          C       0.53389   0.79790   0.17693   0.0000000000
C          C       0.17693   0.53389   0.79790   0.0000000000
C          C       0.79790   0.17693   0.53389   0.0000000000
C          C       0.49530   0.26492   0.78766   0.0000000000
C          C       0.78766   0.49530   0.26492   0.0000000000
C          C       0.26492   0.78766   0.49530   0.0000000000
C          C       0.50470   0.73508   0.21234   0.0000000000
C          C       0.21234   0.50470   0.73508   0.0000000000
C          C       0.73508   0.21234   0.50470   0.0000000000
C          C       0.59269   0.38864   0.78243   0.0000000000
C          C       0.78243   0.59269   0.38864   0.0000000000
C          C       0.38864   0.78243   0.59269   0.0000000000
C          C       0.40731   0.61136   0.21757   0.0000000000
C          C       0.21757   0.40731   0.61136   0.0000000000
C          C       0.61136   0.21757   0.40731   0.0000000000
C          C       0.56442   0.31986   0.81702   0.0000000000
C          C       0.81702   0.56442   0.31986   0.0000000000
C          C       0.31986   0.81702   0.56442   0.0000000000
C          C       0.43558   0.68014   0.18298   0.0000000000
C          C       0.18298   0.43558   0.68014   0.0000000000
C          C       0.68014   0.18298   0.43558   0.0000000000
C          C       0.75263   0.42849   0.92222   0.0000000000
C          C       0.92222   0.75263   0.42849   0.0000000000
C          C       0.42849   0.92222   0.75263   0.0000000000
C          C       0.24737   0.57151   0.07778   0.0000000000
C          C       0.07778   0.24737   0.57151   0.0000000000
C          C       0.57151   0.07778   0.24737   0.0000000000
C          C       0.78310   0.40062   0.98800   0.0000000000
C          C       0.98800   0.78310   0.40062   0.0000000000
C          C       0.40062   0.98800   0.78310   0.0000000000
C          C       0.21690   0.59938   0.01200   0.0000000000
C          C       0.01200   0.21690   0.59938   0.0000000000
C          C       0.59938   0.01200   0.21690   0.0000000000
C          C       0.81479   0.82839   0.02512   0.0000000000
C          C       0.02512   0.81479   0.82839   0.0000000000
C          C       0.82839   0.02512   0.81479   0.0000000000
C          C       0.18521   0.17161   0.97488   0.0000000000
C          C       0.97488   0.18521   0.17161   0.0000000000
C          C       0.17161   0.97488   0.18521   0.0000000000
C          C       0.86695   0.87262   0.97019   0.0000000000
C          C       0.97019   0.86695   0.87262   0.0000000000
C          C       0.87262   0.97019   0.86695   0.0000000000
C          C       0.13305   0.12738   0.02981   0.0000000000
C          C       0.02981   0.13305   0.12738   0.0000000000
C          C       0.12738   0.02981   0.13305   0.0000000000
C          C       0.73692   0.85331   0.03800   0.0000000000
C          C       0.03800   0.73692   0.85331   0.0000000000
C          C       0.85331   0.03800   0.73692   0.0000000000
C          C       0.26308   0.14669   0.96200   0.0000000000
C          C       0.96200   0.26308   0.14669   0.0000000000
C          C       0.14669   0.96200   0.26308   0.0000000000
O          O       0.67475   0.89832   0.21124   0.0000000000
O          O       0.21124   0.67475   0.89832   0.0000000000
O          O       0.89832   0.21124   0.67475   0.0000000000
O          O       0.32525   0.10168   0.78876   0.0000000000
O          O       0.78876   0.32525   0.10168   0.0000000000
O          O       0.10168   0.78876   0.32525   0.0000000000
O          O       0.54673   0.89652   0.07846   0.0000000000
O          O       0.07846   0.54673   0.89652   0.0000000000
O          O       0.89652   0.07846   0.54673   0.0000000000
O          O       0.45327   0.10348   0.92154   0.0000000000
O          O       0.92154   0.45327   0.10348   0.0000000000
O          O       0.10348   0.92154   0.45327   0.0000000000
O          O       0.85528   0.12888   0.71723   0.0000000000
O          O       0.71723   0.85528   0.12888   0.0000000000
O          O       0.12888   0.71723   0.85528   0.0000000000
O          O       0.14472   0.87112   0.28277   0.0000000000
O          O       0.28277   0.14472   0.87112   0.0000000000
O          O       0.87112   0.28277   0.14472   0.0000000000
O          O       0.95431   0.15737   0.54536   0.0000000000
O          O       0.54536   0.95431   0.15737   0.0000000000
O          O       0.15737   0.54536   0.95431   0.0000000000
O          O       0.04569   0.84263   0.45464   0.0000000000
O          O       0.45464   0.04569   0.84263   0.0000000000
O          O       0.84263   0.45464   0.04569   0.0000000000
O          O       0.32140   0.43592   0.34203   0.0000000000
O          O       0.34203   0.32140   0.43592   0.0000000000
O          O       0.43592   0.34203   0.32140   0.0000000000
O          O       0.67860   0.56408   0.65797   0.0000000000
O          O       0.65797   0.67860   0.56408   0.0000000000
O          O       0.56408   0.65797   0.67860   0.0000000000
O          O       0.47632   0.37126   0.45989   0.0000000000
O          O       0.45989   0.47632   0.37126   0.0000000000
O          O       0.37126   0.45989   0.47632   0.0000000000
O          O       0.52368   0.62874   0.54011   0.0000000000
O          O       0.54011   0.52368   0.62874   0.0000000000
O          O       0.62874   0.54011   0.52368   0.0000000000
O          O       0.19566   0.60810   0.83020   0.0000000000
O          O       0.83020   0.19566   0.60810   0.0000000000
O          O       0.60810   0.83020   0.19566   0.0000000000
O          O       0.80434   0.39190   0.16980   0.0000000000
O          O       0.16980   0.80434   0.39190   0.0000000000
O          O       0.39190   0.16980   0.80434   0.0000000000
O          O       0.04293   0.64541   0.95585   0.0000000000
O          O       0.95585   0.04293   0.64541   0.0000000000
O          O       0.64541   0.95585   0.04293   0.0000000000
O          O       0.95707   0.35459   0.04415   0.0000000000
O          O       0.04415   0.95707   0.35459   0.0000000000
O          O       0.35459   0.04415   0.95707   0.0000000000
H          H       0.48507   0.40021   0.70303   0.0000000000
H          H       0.70303   0.48507   0.40021   0.0000000000
H          H       0.40021   0.70303   0.48507   0.0000000000
H          H       0.51493   0.59979   0.29697   0.0000000000
H          H       0.29697   0.51493   0.59979   0.0000000000
H          H       0.59979   0.29697   0.51493   0.0000000000
H          H       0.74769   0.50982   0.77306   0.0000000000
H          H       0.77306   0.74769   0.50982   0.0000000000
H          H       0.50982   0.77306   0.74769   0.0000000000
H          H       0.25231   0.49018   0.22694   0.0000000000
H          H       0.22694   0.25231   0.49018   0.0000000000
H          H       0.49018   0.22694   0.25231   0.0000000000
H          H       0.47059   0.28461   0.72970   0.0000000000
H          H       0.72970   0.47059   0.28461   0.0000000000
H          H       0.28461   0.72970   0.47059   0.0000000000
H          H       0.52941   0.71539   0.27030   0.0000000000
H          H       0.27030   0.52941   0.71539   0.0000000000
H          H       0.71539   0.27030   0.52941   0.0000000000
H          H       0.57135   0.20056   0.99216   0.0000000000
H          H       0.99216   0.57135   0.20056   0.0000000000
H          H       0.20056   0.99216   0.57135   0.0000000000
H          H       0.42865   0.79944   0.00784   0.0000000000
H          H       0.00784   0.42865   0.79944   0.0000000000
H          H       0.79944   0.00784   0.42865   0.0000000000
H          H       0.94357   0.16241   0.22506   0.0000000000
H          H       0.22506   0.94357   0.16241   0.0000000000
H          H       0.16241   0.22506   0.94357   0.0000000000
H          H       0.05643   0.83759   0.77494   0.0000000000
H          H       0.77494   0.05643   0.83759   0.0000000000
H          H       0.83759   0.77494   0.05643   0.0000000000
H          H       0.04966   0.25329   0.96809   0.0000000000
H          H       0.96809   0.04966   0.25329   0.0000000000
H          H       0.25329   0.96809   0.04966   0.0000000000
H          H       0.95034   0.74671   0.03191   0.0000000000
H          H       0.03191   0.95034   0.74671   0.0000000000
H          H       0.74671   0.03191   0.95034   0.0000000000
H          H       0.22169   0.51370   0.09663   0.0000000000
H          H       0.09663   0.22169   0.51370   0.0000000000
H          H       0.51370   0.09663   0.22169   0.0000000000
H          H       0.77831   0.48630   0.90337   0.0000000000
H          H       0.90337   0.77831   0.48630   0.0000000000
H          H       0.48630   0.90337   0.77831   0.0000000000
H          H       0.32436   0.76685   0.99172   0.0000000000
H          H       0.99172   0.32436   0.76685   0.0000000000
H          H       0.76685   0.99172   0.32436   0.0000000000
H          H       0.67564   0.23315   0.00828   0.0000000000
H          H       0.00828   0.67564   0.23315   0.0000000000
H          H       0.23315   0.00828   0.67564   0.0000000000
Si         Si      0.12716   0.62753   0.89761   0.0000000000
Si         Si      0.89761   0.12716   0.62753   0.0000000000
Si         Si      0.62753   0.89761   0.12716   0.0000000000
Si         Si      0.87284   0.37247   0.10239   0.0000000000
Si         Si      0.10239   0.87284   0.37247   0.0000000000
Si         Si      0.37247   0.10239   0.87284   0.0000000000
Si         Si      0.39866   0.39866   0.39866   0.0000000000
Si         Si      0.60134   0.60134   0.60134   0.0000000000
Na         Na      0.00000   0.00000   0.00000   0.0000000000
Na         Na      0.00000   0.50000   0.00000   0.0000000000
Na         Na      0.00000   0.00000   0.50000   0.0000000000
Na         Na      0.50000   0.00000   0.00000   0.0000000000
Na         Na      0.50000   0.50000   0.50000   0.0000000000
Na         Na      0.29429   0.29429   0.29429   0.0000000000
Na         Na      0.70571   0.70571   0.70571   0.0000000000
Na         Na      0.26527   0.20500   0.77749   0.0000000000
Na         Na      0.77749   0.26527   0.20500   0.0000000000
Na         Na      0.20500   0.77749   0.26527   0.0000000000
Na         Na      0.73473   0.79500   0.22251   0.0000000000
Na         Na      0.22251   0.73473   0.79500   0.0000000000
Na         Na      0.79500   0.22251   0.73473   0.0000000000
Na         Na      0.50000   0.50000   0.00000   0.0000000000
Na         Na      0.00000   0.50000   0.50000   0.0000000000
Na         Na      0.50000   0.00000   0.50000   0.0000000000
