data_crystal

_cell_length_a    16.97000
_cell_length_b    13.51000
_cell_length_c    16.33000
_cell_angle_alpha 90.00000
_cell_angle_beta  108.87000
_cell_angle_gamma 90.00000

_space_group_name_Hall 'P 1'
_space_group_name_H-M_alt  'P 1'

loop_
_symmetry_equiv_pos_as_xyz
'x,y,z' 

loop_
_atom_site_label
_atom_site_type_symbol
_atom_site_fract_x
_atom_site_fract_y
_atom_site_fract_z
O          O       0.45939   0.43310   0.17779 
O          O       0.54061   0.43310   0.82221 
O          O       0.54062   0.43308   0.32219 
O          O       0.45938   0.43308   0.67781 
O          O       0.53124   0.68786   0.18298 
O          O       0.46876   0.68786   0.81702 
O          O       0.46878   0.68784   0.31703 
O          O       0.53122   0.68784   0.68297 
C          C       0.49969   0.59794   0.14092 
C          C       0.50031   0.59794   0.85908 
C          C       0.46980   0.53236   0.20424 
C          C       0.53020   0.53236   0.79576 
C          C       0.50000   0.37380   0.24999 
C          C       0.50000   0.37380   0.75001 
C          C       0.43400   0.30655   0.26658 
C          C       0.56600   0.30655   0.73342 
C          C       0.56599   0.30655   0.23337 
C          C       0.43401   0.30655   0.76663 
C          C       0.53022   0.53235   0.29576 
C          C       0.46978   0.53235   0.70424 
C          C       0.50034   0.59792   0.35909 
C          C       0.49966   0.59792   0.64091 
C          C       0.15221   0.85937   0.73837 
C          C       0.84779   0.85937   0.26163 
N          N       0.20877   0.81623   0.81624 
N          N       0.79123   0.81623   0.18376 
C          C       0.20132   0.73779   0.85966 
C          C       0.79868   0.73779   0.14034 
C          C       0.27387   0.70423   0.93455 
C          C       0.72613   0.70423   0.06545 
C          C       0.27288   0.61326   0.97603 
C          C       0.72712   0.61326   0.02397 
C          C       0.34656   0.57313   0.03447 
C          C       0.65344   0.57313   0.96553 
C          C       0.42324   0.62572   0.05875 
C          C       0.57676   0.62572   0.94125 
C          C       0.41913   0.72189   0.02291 
C          C       0.58087   0.72189   0.97709 
C          C       0.34792   0.75880   0.96050 
C          C       0.65208   0.75880   0.03950 
C          C       0.08095   0.81214   0.68343 
C          C       0.91905   0.81214   0.31657 
C          C       0.03382   0.85854   0.60577 
C          C       0.96618   0.85854   0.39423 
C          C       0.05540   0.95073   0.57938 
C          C       0.94460   0.95073   0.42062 
C          C       0.12533   0.99792   0.63833 
C          C       0.87467   0.99792   0.36167 
C          C       0.17314   0.95244   0.71480 
C          C       0.82686   0.95244   0.28520 
C          C       0.84780   0.85935   0.76165 
C          C       0.15220   0.85935   0.23835 
N          N       0.79125   0.81620   0.68378 
N          N       0.20875   0.81620   0.31622 
C          C       0.79870   0.73775   0.64036 
C          C       0.20130   0.73775   0.35964 
C          C       0.72615   0.70419   0.56547 
C          C       0.27385   0.70419   0.43453 
C          C       0.72714   0.61322   0.52399 
C          C       0.27286   0.61322   0.47601 
C          C       0.65346   0.57309   0.46555 
C          C       0.34654   0.57309   0.53445 
C          C       0.57679   0.62569   0.44126 
C          C       0.42321   0.62569   0.55874 
C          C       0.58090   0.72186   0.47711 
C          C       0.41910   0.72186   0.52289 
C          C       0.65210   0.75875   0.53952 
C          C       0.34790   0.75875   0.46048 
C          C       0.82685   0.95241   0.78522 
C          C       0.17315   0.95241   0.21478 
C          C       0.87465   0.99790   0.86168 
C          C       0.12535   0.99790   0.13832 
C          C       0.94460   0.95074   0.92063 
C          C       0.05540   0.95074   0.07937 
C          C       0.96620   0.85856   0.89423 
C          C       0.03380   0.85856   0.10577 
C          C       0.91908   0.81215   0.81658 
C          C       0.08092   0.81215   0.18342 
C          C       0.83871   0.20052   0.09609 
C          C       0.16129   0.20052   0.90391 
N          N       0.77644   0.26743   0.10634 
N          N       0.22356   0.26743   0.89366 
C          C       0.78772   0.35574   0.14020 
C          C       0.21228   0.35574   0.85980 
C          C       0.71540   0.41874   0.13742 
C          C       0.28460   0.41874   0.86258 
C          C       0.72653   0.50745   0.18427 
C          C       0.27347   0.50745   0.81573 
C          C       0.65848   0.56986   0.17774 
C          C       0.34152   0.56986   0.82226 
C          C       0.57578   0.54314   0.12810 
C          C       0.42422   0.54314   0.87190 
C          C       0.56676   0.45054   0.08765 
C          C       0.43324   0.45054   0.91235 
C          C       0.63453   0.39175   0.08766 
C          C       0.36547   0.39175   0.91234 
C          C       0.92039   0.23061   0.10512 
C          C       0.07961   0.23061   0.89488 
C          C       0.97369   0.16781   0.07944 
C          C       0.02631   0.16781   0.92056 
C          C       0.94443   0.07730   0.03967 
C          C       0.05557   0.07730   0.96033 
C          C       0.86787   0.04107   0.04254 
C          C       0.13213   0.04107   0.95746 
C          C       0.81449   0.10386   0.06810 
C          C       0.18551   0.10386   0.93190 
C          C       0.16131   0.20049   0.40391 
C          C       0.83869   0.20049   0.59609 
N          N       0.22359   0.26739   0.39367 
N          N       0.77641   0.26739   0.60633 
C          C       0.21231   0.35570   0.35980 
C          C       0.78769   0.35570   0.64020 
C          C       0.28463   0.41871   0.36259 
C          C       0.71537   0.41871   0.63741 
C          C       0.27349   0.50741   0.31573 
C          C       0.72651   0.50741   0.68427 
C          C       0.34154   0.56983   0.32226 
C          C       0.65846   0.56983   0.67774 
C          C       0.42424   0.54311   0.37191 
C          C       0.57576   0.54311   0.62809 
C          C       0.43327   0.45051   0.41235 
C          C       0.56673   0.45051   0.58765 
C          C       0.36549   0.39171   0.41233 
C          C       0.63451   0.39171   0.58767 
C          C       0.18551   0.10382   0.43190 
C          C       0.81449   0.10382   0.56810 
C          C       0.13213   0.04104   0.45746 
C          C       0.86787   0.04104   0.54254 
C          C       0.05558   0.07728   0.46033 
C          C       0.94442   0.07728   0.53967 
C          C       0.02633   0.16780   0.42057 
C          C       0.97367   0.16780   0.57943 
C          C       0.07963   0.23058   0.39489 
C          C       0.92037   0.23058   0.60511 
H          H       0.48427   0.73168   0.18264 
H          H       0.51573   0.73168   0.81736 
H          H       0.51575   0.73166   0.31739 
H          H       0.48425   0.73166   0.68261 
H          H       0.40824   0.55980   0.20336 
H          H       0.59176   0.55980   0.79664 
H          H       0.45797   0.27147   0.33144 
H          H       0.54203   0.27147   0.66856 
H          H       0.41556   0.24687   0.21715 
H          H       0.58444   0.24687   0.78285 
H          H       0.37662   0.34928   0.25983 
H          H       0.62338   0.34928   0.74017 
H          H       0.54201   0.27148   0.16850 
H          H       0.45799   0.27148   0.83150 
H          H       0.58442   0.24685   0.28279 
H          H       0.41558   0.24685   0.71721 
H          H       0.62337   0.34927   0.24013 
H          H       0.37663   0.34927   0.75987 
H          H       0.59178   0.55979   0.29664 
H          H       0.40822   0.55979   0.70336 
H          H       0.14499   0.69388   0.83921 
H          H       0.85501   0.69388   0.16079 
H          H       0.21617   0.56996   0.95907 
H          H       0.78383   0.56996   0.04093 
H          H       0.34192   0.50111   0.06115 
H          H       0.65808   0.50111   0.93885 
H          H       0.46990   0.77320   0.04749 
H          H       0.53010   0.77320   0.95251 
H          H       0.35090   0.83146   0.93361 
H          H       0.64910   0.83146   0.06639 
H          H       0.06225   0.74037   0.70004 
H          H       0.93775   0.74037   0.29996 
H          H       0.97750   0.82222   0.56643 
H          H       0.02250   0.82222   0.43357 
H          H       0.14352   0.07164   0.62580 
H          H       0.85648   0.07164   0.37420 
H          H       0.22729   0.99073   0.75671 
H          H       0.77271   0.99073   0.24329 
H          H       0.85503   0.69383   0.66082 
H          H       0.14497   0.69383   0.33918 
H          H       0.78385   0.56992   0.54095 
H          H       0.21615   0.56992   0.45905 
H          H       0.65809   0.50108   0.43886 
H          H       0.34191   0.50108   0.56114 
H          H       0.53013   0.77317   0.45253 
H          H       0.46987   0.77317   0.54747 
H          H       0.64913   0.83142   0.56641 
H          H       0.35087   0.83142   0.43359 
H          H       0.77269   0.99068   0.74331 
H          H       0.22731   0.99068   0.25669 
H          H       0.85645   0.07161   0.87420 
H          H       0.14355   0.07161   0.12580 
H          H       0.02254   0.82226   0.93358 
H          H       0.97746   0.82226   0.06642 
H          H       0.93780   0.74038   0.79997 
H          H       0.06220   0.74038   0.20003 
H          H       0.84965   0.38535   0.16957 
H          H       0.15035   0.38535   0.83043 
H          H       0.78824   0.53005   0.22413 
H          H       0.21176   0.53005   0.77587 
H          H       0.67133   0.63743   0.21529 
H          H       0.32867   0.63743   0.78471 
H          H       0.50661   0.41713   0.06446 
H          H       0.49339   0.41713   0.93554 
H          H       0.62267   0.32168   0.05363 
H          H       0.37733   0.32168   0.94637 
H          H       0.94266   0.30365   0.12829 
H          H       0.05734   0.30365   0.87171 
H          H       0.03561   0.19437   0.08638 
H          H       0.96439   0.19437   0.91362 
H          H       0.84631   0.96731   0.02031 
H          H       0.15369   0.96731   0.97969 
H          H       0.75267   0.07817   0.06312 
H          H       0.24733   0.07817   0.93688 
H          H       0.15038   0.38531   0.33042 
H          H       0.84962   0.38531   0.66958 
H          H       0.21178   0.53002   0.27587 
H          H       0.78822   0.53002   0.72413 
H          H       0.32869   0.63741   0.28472 
H          H       0.67131   0.63741   0.71528 
H          H       0.49342   0.41710   0.43554 
H          H       0.50658   0.41710   0.56446 
H          H       0.37736   0.32164   0.44637 
H          H       0.62264   0.32164   0.55363 
H          H       0.24733   0.07812   0.43688 
H          H       0.75267   0.07812   0.56312 
H          H       0.15368   0.96728   0.47970 
H          H       0.84632   0.96728   0.52030 
H          H       0.96441   0.19438   0.41364 
H          H       0.03559   0.19438   0.58636 
H          H       0.05737   0.30364   0.37173 
H          H       0.94263   0.30364   0.62827 
C          C       0.00000   0.01084   0.50000 
C          C       0.00000   0.01086   0.00000 
