data_crystal
 
_cell_length_a    22.5
_cell_length_b    22.5
_cell_length_c    13.0
_cell_angle_alpha 90.00000
_cell_angle_beta  90.00000
_cell_angle_gamma 90.00000
 
_symmetry_space_group_name_Hall 'P 1'
_symmetry_space_group_name_H-M  'P 1'
 
loop_
_symmetry_equiv_pos_as_xyz
 'x,y,z' 
 
loop_
_atom_site_label
_atom_site_type_symbol
_atom_site_fract_x
_atom_site_fract_y
_atom_site_fract_z
_atom_site_charge
C          C       0.41871   0.84287   0.77678   0.0000000000
C          C       0.58129   0.15713   0.77678   0.0000000000
C          C       0.15713   0.41871   0.77678   0.0000000000
C          C       0.84287   0.58129   0.77678   0.0000000000
C          C       0.58129   0.84287   0.22322   0.0000000000
C          C       0.41871   0.15713   0.22322   0.0000000000
C          C       0.84287   0.41871   0.22322   0.0000000000
C          C       0.15713   0.58129   0.22322   0.0000000000
C          C       0.08129   0.65713   0.22322   0.0000000000
C          C       0.91871   0.34287   0.22322   0.0000000000
C          C       0.34287   0.08129   0.22322   0.0000000000
C          C       0.65713   0.91871   0.22322   0.0000000000
C          C       0.91871   0.65713   0.77678   0.0000000000
C          C       0.08129   0.34287   0.77678   0.0000000000
C          C       0.65713   0.08129   0.77678   0.0000000000
C          C       0.34287   0.91871   0.77678   0.0000000000
C          C       0.45091   0.87607   0.83340   0.0000000000
C          C       0.54909   0.12393   0.83340   0.0000000000
C          C       0.12393   0.45091   0.83340   0.0000000000
C          C       0.87607   0.54909   0.83340   0.0000000000
C          C       0.54909   0.87607   0.16660   0.0000000000
C          C       0.45091   0.12393   0.16660   0.0000000000
C          C       0.87607   0.45091   0.16660   0.0000000000
C          C       0.12393   0.54909   0.16660   0.0000000000
C          C       0.04909   0.62393   0.16660   0.0000000000
C          C       0.95091   0.37607   0.16660   0.0000000000
C          C       0.37607   0.04909   0.16660   0.0000000000
C          C       0.62393   0.95091   0.16660   0.0000000000
C          C       0.95091   0.62393   0.83340   0.0000000000
C          C       0.04909   0.37607   0.83340   0.0000000000
C          C       0.62393   0.04909   0.83340   0.0000000000
C          C       0.37607   0.95091   0.83340   0.0000000000
C          C       0.26175   0.69215   0.47100   0.0000000000
C          C       0.73825   0.30785   0.47100   0.0000000000
C          C       0.30785   0.26175   0.47100   0.0000000000
C          C       0.69215   0.73825   0.47100   0.0000000000
C          C       0.73825   0.69215   0.52900   0.0000000000
C          C       0.26175   0.30785   0.52900   0.0000000000
C          C       0.69215   0.26175   0.52900   0.0000000000
C          C       0.30785   0.73825   0.52900   0.0000000000
C          C       0.23825   0.80785   0.52900   0.0000000000
C          C       0.76175   0.19215   0.52900   0.0000000000
C          C       0.19215   0.23825   0.52900   0.0000000000
C          C       0.80785   0.76175   0.52900   0.0000000000
C          C       0.76175   0.80785   0.47100   0.0000000000
C          C       0.23825   0.19215   0.47100   0.0000000000
C          C       0.80785   0.23825   0.47100   0.0000000000
C          C       0.19215   0.76175   0.47100   0.0000000000
H          H       0.43618   0.79809   0.75289   0.0000000000
H          H       0.56382   0.20191   0.75289   0.0000000000
H          H       0.20191   0.43618   0.75289   0.0000000000
H          H       0.79809   0.56382   0.75289   0.0000000000
H          H       0.56382   0.79809   0.24711   0.0000000000
H          H       0.43618   0.20191   0.24711   0.0000000000
H          H       0.79809   0.43618   0.24711   0.0000000000
H          H       0.20191   0.56382   0.24711   0.0000000000
H          H       0.06382   0.70191   0.24711   0.0000000000
H          H       0.93618   0.29809   0.24711   0.0000000000
H          H       0.29809   0.06382   0.24711   0.0000000000
H          H       0.70191   0.93618   0.24711   0.0000000000
H          H       0.93618   0.70191   0.75289   0.0000000000
H          H       0.06382   0.29809   0.75289   0.0000000000
H          H       0.70191   0.06382   0.75289   0.0000000000
H          H       0.29809   0.93618   0.75289   0.0000000000
H          H       0.49585   0.85960   0.85829   0.0000000000
H          H       0.50415   0.14040   0.85829   0.0000000000
H          H       0.14040   0.49585   0.85829   0.0000000000
H          H       0.85960   0.50415   0.85829   0.0000000000
H          H       0.50415   0.85960   0.14171   0.0000000000
H          H       0.49585   0.14040   0.14171   0.0000000000
H          H       0.85960   0.49585   0.14171   0.0000000000
H          H       0.14040   0.50415   0.14171   0.0000000000
H          H       0.00415   0.64040   0.14171   0.0000000000
H          H       0.99585   0.35960   0.14171   0.0000000000
H          H       0.35960   0.00415   0.14171   0.0000000000
H          H       0.64040   0.99585   0.14171   0.0000000000
H          H       0.99585   0.64040   0.85829   0.0000000000
H          H       0.00415   0.35960   0.85829   0.0000000000
H          H       0.64040   0.00415   0.85829   0.0000000000
H          H       0.35960   0.99585   0.85829   0.0000000000
H          H       0.27718   0.64576   0.45152   0.0000000000
H          H       0.72282   0.35424   0.45152   0.0000000000
H          H       0.35424   0.27718   0.45152   0.0000000000
H          H       0.64576   0.72282   0.45152   0.0000000000
H          H       0.72282   0.64576   0.54848   0.0000000000
H          H       0.27718   0.35424   0.54848   0.0000000000
H          H       0.64576   0.27718   0.54848   0.0000000000
H          H       0.35424   0.72282   0.54848   0.0000000000
H          H       0.22282   0.85424   0.54848   0.0000000000
H          H       0.77718   0.14576   0.54848   0.0000000000
H          H       0.14576   0.22282   0.54848   0.0000000000
H          H       0.85424   0.77718   0.54848   0.0000000000
H          H       0.77718   0.85424   0.45152   0.0000000000
H          H       0.22282   0.14576   0.45152   0.0000000000
H          H       0.85424   0.22282   0.45152   0.0000000000
H          H       0.14576   0.77718   0.45152   0.0000000000
H          H       0.96776   0.40183   0.96143   0.0000000000
H          H       0.03224   0.59817   0.96143   0.0000000000
H          H       0.59817   0.96776   0.96143   0.0000000000
H          H       0.40183   0.03224   0.96143   0.0000000000
H          H       0.03224   0.40183   0.03857   0.0000000000
H          H       0.96776   0.59817   0.03857   0.0000000000
H          H       0.40183   0.96776   0.03857   0.0000000000
H          H       0.59817   0.03224   0.03857   0.0000000000
H          H       0.53224   0.09817   0.03857   0.0000000000
H          H       0.46776   0.90183   0.03857   0.0000000000
H          H       0.90183   0.53224   0.03857   0.0000000000
H          H       0.09817   0.46776   0.03857   0.0000000000
H          H       0.46776   0.09817   0.96143   0.0000000000
H          H       0.53224   0.90183   0.96143   0.0000000000
H          H       0.09817   0.53224   0.96143   0.0000000000
H          H       0.90183   0.46776   0.96143   0.0000000000
C          C       0.43120   0.93120   0.86378   0.0000000000
C          C       0.56880   0.06880   0.86378   0.0000000000
C          C       0.06880   0.43120   0.86378   0.0000000000
C          C       0.93120   0.56880   0.86378   0.0000000000
C          C       0.56880   0.93120   0.13622   0.0000000000
C          C       0.43120   0.06880   0.13622   0.0000000000
C          C       0.93120   0.43120   0.13622   0.0000000000
C          C       0.06880   0.56880   0.13622   0.0000000000
N          N       0.33151   0.83151   0.68887   0.0000000000
N          N       0.66849   0.16849   0.68887   0.0000000000
N          N       0.16849   0.33151   0.68887   0.0000000000
N          N       0.83151   0.66849   0.68887   0.0000000000
N          N       0.66849   0.83151   0.31113   0.0000000000
N          N       0.33151   0.16849   0.31113   0.0000000000
N          N       0.83151   0.33151   0.31113   0.0000000000
N          N       0.16849   0.66849   0.31113   0.0000000000
C          C       0.32350   0.82350   0.58688   0.0000000000
C          C       0.67650   0.17650   0.58688   0.0000000000
C          C       0.17650   0.32350   0.58688   0.0000000000
C          C       0.82350   0.67650   0.58688   0.0000000000
C          C       0.67650   0.82350   0.41312   0.0000000000
C          C       0.32350   0.17650   0.41312   0.0000000000
C          C       0.82350   0.32350   0.41312   0.0000000000
C          C       0.17650   0.67650   0.41312   0.0000000000
H          H       0.35094   0.85094   0.53687   0.0000000000
H          H       0.64906   0.14906   0.53687   0.0000000000
H          H       0.14906   0.35094   0.53687   0.0000000000
H          H       0.85094   0.64906   0.53687   0.0000000000
H          H       0.64906   0.85094   0.46313   0.0000000000
H          H       0.35094   0.14906   0.46313   0.0000000000
H          H       0.85094   0.35094   0.46313   0.0000000000
H          H       0.14906   0.64906   0.46313   0.0000000000
C          C       0.96501   0.46501   0.07015   0.0000000000
C          C       0.03499   0.53499   0.07015   0.0000000000
C          C       0.53499   0.96501   0.07015   0.0000000000
C          C       0.46501   0.03499   0.07015   0.0000000000
C          C       0.03499   0.46501   0.92985   0.0000000000
C          C       0.96501   0.53499   0.92985   0.0000000000
C          C       0.46501   0.96501   0.92985   0.0000000000
C          C       0.53499   0.03499   0.92985   0.0000000000
C          C       0.63664   0.13664   0.74687   0.0000000000
C          C       0.36336   0.86336   0.74687   0.0000000000
C          C       0.86336   0.63664   0.74687   0.0000000000
C          C       0.13664   0.36336   0.74687   0.0000000000
C          C       0.36336   0.13664   0.25313   0.0000000000
C          C       0.63664   0.86336   0.25313   0.0000000000
C          C       0.13664   0.63664   0.25313   0.0000000000
C          C       0.86336   0.36336   0.25313   0.0000000000
C          C       0.78637   0.28637   0.45424   0.0000000000
C          C       0.21363   0.71363   0.45424   0.0000000000
C          C       0.71363   0.78637   0.45424   0.0000000000
C          C       0.28637   0.21363   0.45424   0.0000000000
C          C       0.21363   0.28637   0.54576   0.0000000000
C          C       0.78637   0.71363   0.54576   0.0000000000
C          C       0.28637   0.78637   0.54576   0.0000000000
C          C       0.71363   0.21363   0.54576   0.0000000000
C          C       0.00000   0.43157   0.00000   0.0000000000
C          C       0.00000   0.56843   0.00000   0.0000000000
C          C       0.56843   0.00000   0.00000   0.0000000000
C          C       0.43157   0.00000   0.00000   0.0000000000
C          C       0.50000   0.06843   0.00000   0.0000000000
C          C       0.50000   0.93157   0.00000   0.0000000000
C          C       0.93157   0.50000   0.00000   0.0000000000
C          C       0.06843   0.50000   0.00000   0.0000000000
C          C       0.00000   0.50000   0.13201   0.0000000000
C          C       0.50000   0.00000   0.13201   0.0000000000
C          C       0.00000   0.50000   0.86799   0.0000000000
C          C       0.50000   0.00000   0.86799   0.0000000000
H          H       0.02935   0.47065   0.17648   0.0000000000
H          H       0.97065   0.52935   0.17648   0.0000000000
H          H       0.52935   0.02935   0.17648   0.0000000000
H          H       0.47065   0.97065   0.17648   0.0000000000
H          H       0.97065   0.47065   0.82352   0.0000000000
H          H       0.02935   0.52935   0.82352   0.0000000000
H          H       0.47065   0.02935   0.82352   0.0000000000
H          H       0.52935   0.97065   0.82352   0.0000000000
