data_crystal

_cell_length_a    22.58000
_cell_length_b    22.58000
_cell_length_c    7.30000
_cell_angle_alpha 90.00000
_cell_angle_beta  90.00000
_cell_angle_gamma 90.00000

_space_group_name_Hall 'P 1'
_space_group_name_H-M_alt  'P 1'

loop_
_symmetry_equiv_pos_as_xyz
'x,y,z' 

loop_
_atom_site_label
_atom_site_type_symbol
_atom_site_fract_x
_atom_site_fract_y
_atom_site_fract_z
C          C       0.40787   0.83232   0.55886 
C          C       0.59213   0.16768   0.55886 
C          C       0.16768   0.40787   0.55886 
C          C       0.83232   0.59213   0.55886 
C          C       0.59213   0.83232   0.44114 
C          C       0.40787   0.16768   0.44114 
C          C       0.83232   0.40787   0.44114 
C          C       0.16768   0.59213   0.44114 
C          C       0.09213   0.66768   0.44114 
C          C       0.90787   0.33232   0.44114 
C          C       0.33232   0.09213   0.44114 
C          C       0.66768   0.90787   0.44114 
C          C       0.90787   0.66768   0.55886 
C          C       0.09213   0.33232   0.55886 
C          C       0.66768   0.09213   0.55886 
C          C       0.33232   0.90787   0.55886 
C          C       0.44237   0.86660   0.67653 
C          C       0.55763   0.13340   0.67653 
C          C       0.13340   0.44237   0.67653 
C          C       0.86660   0.55763   0.67653 
C          C       0.55763   0.86660   0.32347 
C          C       0.44237   0.13340   0.32347 
C          C       0.86660   0.44237   0.32347 
C          C       0.13340   0.55763   0.32347 
C          C       0.05763   0.63340   0.32347 
C          C       0.94237   0.36660   0.32347 
C          C       0.36660   0.05763   0.32347 
C          C       0.63340   0.94237   0.32347 
C          C       0.94237   0.63340   0.67653 
C          C       0.05763   0.36660   0.67653 
C          C       0.63340   0.05763   0.67653 
C          C       0.36660   0.94237   0.67653 
C          C       0.26930   0.69328   0.95056 
C          C       0.73070   0.30672   0.95056 
C          C       0.30672   0.26930   0.95056 
C          C       0.69328   0.73070   0.95056 
C          C       0.73070   0.69328   0.04944 
C          C       0.26930   0.30672   0.04944 
C          C       0.69328   0.26930   0.04944 
C          C       0.30672   0.73070   0.04944 
C          C       0.23070   0.80672   0.04944 
C          C       0.76930   0.19328   0.04944 
C          C       0.19328   0.23070   0.04944 
C          C       0.80672   0.76930   0.04944 
C          C       0.76930   0.80672   0.95056 
C          C       0.23070   0.19328   0.95056 
C          C       0.80672   0.23070   0.95056 
C          C       0.19328   0.76930   0.95056 
H          H       0.42442   0.78998   0.51138 
H          H       0.57558   0.21002   0.51138 
H          H       0.21002   0.42442   0.51138 
H          H       0.78998   0.57558   0.51138 
H          H       0.57558   0.78998   0.48862 
H          H       0.42442   0.21002   0.48862 
H          H       0.78998   0.42442   0.48862 
H          H       0.21002   0.57558   0.48862 
H          H       0.07558   0.71002   0.48862 
H          H       0.92442   0.28998   0.48862 
H          H       0.28998   0.07558   0.48862 
H          H       0.71002   0.92442   0.48862 
H          H       0.92442   0.71002   0.51138 
H          H       0.07558   0.28998   0.51138 
H          H       0.71002   0.07558   0.51138 
H          H       0.28998   0.92442   0.51138 
H          H       0.48530   0.84913   0.71094 
H          H       0.51470   0.15087   0.71094 
H          H       0.15087   0.48530   0.71094 
H          H       0.84913   0.51470   0.71094 
H          H       0.51470   0.84913   0.28906 
H          H       0.48530   0.15087   0.28906 
H          H       0.84913   0.48530   0.28906 
H          H       0.15087   0.51470   0.28906 
H          H       0.01470   0.65087   0.28906 
H          H       0.98530   0.34913   0.28906 
H          H       0.34913   0.01470   0.28906 
H          H       0.65087   0.98530   0.28906 
H          H       0.98530   0.65087   0.71094 
H          H       0.01470   0.34913   0.71094 
H          H       0.65087   0.01470   0.71094 
H          H       0.34913   0.98530   0.71094 
H          H       0.28476   0.64960   0.91170 
H          H       0.71524   0.35040   0.91170 
H          H       0.35040   0.28476   0.91170 
H          H       0.64960   0.71524   0.91170 
H          H       0.71524   0.64960   0.08830 
H          H       0.28476   0.35040   0.08830 
H          H       0.64960   0.28476   0.08830 
H          H       0.35040   0.71524   0.08830 
H          H       0.21524   0.85040   0.08830 
H          H       0.78476   0.14960   0.08830 
H          H       0.14960   0.21524   0.08830 
H          H       0.85040   0.78476   0.08830 
H          H       0.78476   0.85040   0.91170 
H          H       0.21524   0.14960   0.91170 
H          H       0.85040   0.21524   0.91170 
H          H       0.14960   0.78476   0.91170 
H          H       0.03057   0.39307   0.07885 
H          H       0.96943   0.60693   0.07885 
H          H       0.60693   0.03057   0.07885 
H          H       0.39307   0.96943   0.07885 
H          H       0.96943   0.39307   0.92115 
H          H       0.03057   0.60693   0.92115 
H          H       0.39307   0.03057   0.92115 
H          H       0.60693   0.96943   0.92115 
H          H       0.46943   0.10693   0.92115 
H          H       0.53057   0.89307   0.92115 
H          H       0.89307   0.46943   0.92115 
H          H       0.10693   0.53057   0.92115 
H          H       0.53057   0.10693   0.07885 
H          H       0.46943   0.89307   0.07885 
H          H       0.10693   0.46943   0.07885 
H          H       0.89307   0.53057   0.07885 
C          C       0.42175   0.92175   0.74369 
C          C       0.57825   0.07825   0.74369 
C          C       0.07825   0.42175   0.74369 
C          C       0.92175   0.57825   0.74369 
C          C       0.57825   0.92175   0.25631 
C          C       0.42175   0.07825   0.25631 
C          C       0.92175   0.42175   0.25631 
C          C       0.07825   0.57825   0.25631 
N          N       0.31911   0.81911   0.38951 
N          N       0.68089   0.18089   0.38951 
N          N       0.18089   0.31911   0.38951 
N          N       0.81911   0.68089   0.38951 
N          N       0.68089   0.81911   0.61049 
N          N       0.31911   0.18089   0.61049 
N          N       0.81911   0.31911   0.61049 
N          N       0.18089   0.68089   0.61049 
C          C       0.32318   0.82318   0.20549 
C          C       0.67682   0.17682   0.20549 
C          C       0.17682   0.32318   0.20549 
C          C       0.82318   0.67682   0.20549 
C          C       0.67682   0.82318   0.79451 
C          C       0.32318   0.17682   0.79451 
C          C       0.82318   0.32318   0.79451 
C          C       0.17682   0.67682   0.79451 
C          C       0.96035   0.46035   0.12833 
C          C       0.03965   0.53965   0.12833 
C          C       0.53965   0.96035   0.12833 
C          C       0.46035   0.03965   0.12833 
C          C       0.03965   0.46035   0.87167 
C          C       0.96035   0.53965   0.87167 
C          C       0.46035   0.96035   0.87167 
C          C       0.53965   0.03965   0.87167 
H          H       0.35380   0.85380   0.14106 
H          H       0.64620   0.14620   0.14106 
H          H       0.14620   0.35380   0.14106 
H          H       0.85380   0.64620   0.14106 
H          H       0.64620   0.85380   0.85894 
H          H       0.35380   0.14620   0.85894 
H          H       0.85380   0.35380   0.85894 
H          H       0.14620   0.64620   0.85894 
C          C       0.64729   0.14729   0.50095 
C          C       0.35271   0.85271   0.50095 
C          C       0.85271   0.64729   0.50095 
C          C       0.14729   0.35271   0.50095 
C          C       0.35271   0.14729   0.49905 
C          C       0.64729   0.85271   0.49905 
C          C       0.14729   0.64729   0.49905 
C          C       0.85271   0.35271   0.49905 
C          C       0.78758   0.28758   0.90162 
C          C       0.21242   0.71242   0.90162 
C          C       0.71242   0.78758   0.90162 
C          C       0.28758   0.21242   0.90162 
C          C       0.21242   0.28758   0.09838 
C          C       0.78758   0.71242   0.09838 
C          C       0.28758   0.78758   0.09838 
C          C       0.71242   0.21242   0.09838 
C          C       0.00000   0.42181   0.00000 
C          C       0.00000   0.57819   0.00000 
C          C       0.57819   0.00000   0.00000 
C          C       0.42181   0.00000   0.00000 
C          C       0.50000   0.07819   0.00000 
C          C       0.50000   0.92181   0.00000 
C          C       0.92181   0.50000   0.00000 
C          C       0.07819   0.50000   0.00000 
C          C       0.00000   0.50000   0.24832 
C          C       0.50000   0.00000   0.24832 
C          C       0.00000   0.50000   0.75168 
C          C       0.50000   0.00000   0.75168 
H          H       0.97186   0.52814   0.33858 
H          H       0.02814   0.47186   0.33858 
H          H       0.47186   0.97186   0.33858 
H          H       0.52814   0.02814   0.33858 
H          H       0.02814   0.52814   0.66142 
H          H       0.97186   0.47186   0.66142 
H          H       0.52814   0.97186   0.66142 
H          H       0.47186   0.02814   0.66142 
