data_crystal

_cell_length_a    31.80350
_cell_length_b    40.73890
_cell_length_c    11.66280
_cell_angle_alpha 90.00000
_cell_angle_beta  92.97660
_cell_angle_gamma 90.00000

_space_group_name_Hall 'P 1'
_space_group_name_H-M_alt  'P 1'

loop_
_symmetry_equiv_pos_as_xyz
'x,y,z' 

loop_
_atom_site_label
_atom_site_type_symbol
_atom_site_fract_x
_atom_site_fract_y
_atom_site_fract_z
N          N       0.36118   0.10605   0.22512 
N          N       0.63882   0.10605   0.27488 
N          N       0.86118   0.60605   0.22512 
N          N       0.13882   0.60605   0.27488 
N          N       0.63882   0.89395   0.27488 
N          N       0.36118   0.89395   0.22512 
N          N       0.13882   0.39395   0.27488 
N          N       0.86118   0.39395   0.22512 
C          C       0.35009   0.12700   0.14514 
C          C       0.64991   0.12700   0.35486 
C          C       0.85009   0.62700   0.14514 
C          C       0.14991   0.62700   0.35486 
C          C       0.64991   0.87300   0.35486 
C          C       0.35009   0.87300   0.14514 
C          C       0.14991   0.37300   0.35486 
C          C       0.85009   0.37300   0.14514 
C          C       0.31899   0.15285   0.16724 
C          C       0.68101   0.15285   0.33276 
C          C       0.81899   0.65285   0.16724 
C          C       0.18101   0.65285   0.33276 
C          C       0.68101   0.84715   0.33276 
C          C       0.31899   0.84715   0.16724 
C          C       0.18101   0.34715   0.33276 
C          C       0.81899   0.34715   0.16724 
C          C       0.13551   0.21485   0.36620 
C          C       0.86449   0.21485   0.13380 
C          C       0.63551   0.71485   0.36620 
C          C       0.36449   0.71485   0.13380 
C          C       0.86449   0.78515   0.13380 
C          C       0.13551   0.78515   0.36620 
C          C       0.36449   0.28515   0.13380 
C          C       0.63551   0.28515   0.36620 
C          C       0.17895   0.21768   0.35581 
C          C       0.82105   0.21768   0.14419 
C          C       0.67895   0.71768   0.35581 
C          C       0.32105   0.71768   0.14419 
C          C       0.82105   0.78232   0.14419 
C          C       0.17895   0.78232   0.35581 
C          C       0.32105   0.28232   0.14419 
C          C       0.67895   0.28232   0.35581 
C          C       0.19483   0.23093   0.25571 
C          C       0.80517   0.23093   0.24429 
C          C       0.69483   0.73093   0.25571 
C          C       0.30517   0.73093   0.24429 
C          C       0.80517   0.76907   0.24429 
C          C       0.19483   0.76907   0.25571 
C          C       0.30517   0.26907   0.24429 
C          C       0.69483   0.26907   0.25571 
C          C       0.16669   0.24160   0.16684 
C          C       0.83331   0.24160   0.33316 
C          C       0.66669   0.74160   0.16684 
C          C       0.33331   0.74160   0.33316 
C          C       0.83331   0.75840   0.33316 
C          C       0.16669   0.75840   0.16684 
C          C       0.33331   0.25840   0.33316 
C          C       0.66669   0.25840   0.16684 
C          C       0.12326   0.23888   0.17747 
C          C       0.87674   0.23888   0.32254 
C          C       0.62326   0.73888   0.17747 
C          C       0.37674   0.73888   0.32254 
C          C       0.87674   0.76112   0.32254 
C          C       0.12326   0.76112   0.17747 
C          C       0.37674   0.26112   0.32254 
C          C       0.62326   0.26112   0.17747 
C          C       0.46076   0.03623   0.23636 
C          C       0.53924   0.03623   0.26364 
C          C       0.96076   0.53623   0.23636 
C          C       0.03924   0.53623   0.26364 
C          C       0.53924   0.96377   0.26364 
C          C       0.46076   0.96377   0.23636 
C          C       0.03924   0.46377   0.26364 
C          C       0.96076   0.46377   0.23636 
C          C       0.43417   0.03978   0.32768 
C          C       0.56583   0.03978   0.17232 
C          C       0.93417   0.53978   0.32768 
C          C       0.06583   0.53978   0.17232 
C          C       0.56583   0.96022   0.17232 
C          C       0.43417   0.96022   0.32768 
C          C       0.06583   0.46022   0.17232 
C          C       0.93417   0.46022   0.32768 
C          C       0.40036   0.06165   0.31951 
C          C       0.59964   0.06165   0.18049 
C          C       0.90036   0.56165   0.31951 
C          C       0.09964   0.56165   0.18049 
C          C       0.59964   0.93835   0.18049 
C          C       0.40036   0.93835   0.31951 
C          C       0.09964   0.43835   0.18049 
C          C       0.90036   0.43835   0.31951 
C          C       0.39346   0.08141   0.22223 
C          C       0.60654   0.08141   0.27778 
C          C       0.89346   0.58141   0.22223 
C          C       0.10654   0.58141   0.27778 
C          C       0.60654   0.91859   0.27778 
C          C       0.39346   0.91859   0.22223 
C          C       0.10654   0.41859   0.27778 
C          C       0.89346   0.41859   0.22223 
C          C       0.42038   0.07813   0.13071 
C          C       0.57962   0.07813   0.36929 
C          C       0.92038   0.57813   0.13071 
C          C       0.07962   0.57813   0.36929 
C          C       0.57962   0.92187   0.36929 
C          C       0.42038   0.92187   0.13071 
C          C       0.07962   0.42187   0.36929 
C          C       0.92038   0.42187   0.13071 
C          C       0.45364   0.05567   0.13815 
C          C       0.54636   0.05567   0.36185 
C          C       0.95364   0.55567   0.13815 
C          C       0.04636   0.55567   0.36185 
C          C       0.54636   0.94433   0.36185 
C          C       0.45364   0.94433   0.13815 
C          C       0.04636   0.44433   0.36185 
C          C       0.95364   0.44433   0.13815 
C          C       0.10746   0.22545   0.27714 
C          C       0.89254   0.22545   0.22286 
C          C       0.60746   0.72545   0.27714 
C          C       0.39254   0.72545   0.22286 
C          C       0.89254   0.77455   0.22286 
C          C       0.10746   0.77455   0.27714 
C          C       0.39254   0.27455   0.22286 
C          C       0.60746   0.27455   0.27714 
C          C       0.29804   0.15368   0.27047 
C          C       0.70196   0.15368   0.22954 
C          C       0.79804   0.65368   0.27047 
C          C       0.20196   0.65368   0.22954 
C          C       0.70196   0.84632   0.22954 
C          C       0.29804   0.84632   0.27047 
C          C       0.20196   0.34632   0.22954 
C          C       0.79804   0.34632   0.27047 
C          C       0.27144   0.17982   0.29408 
C          C       0.72856   0.17982   0.20592 
C          C       0.77144   0.67982   0.29408 
C          C       0.22856   0.67982   0.20592 
C          C       0.72856   0.82018   0.20592 
C          C       0.27144   0.82018   0.29408 
C          C       0.22856   0.32018   0.20592 
C          C       0.77144   0.32018   0.29408 
C          C       0.26537   0.20556   0.21529 
C          C       0.73463   0.20556   0.28472 
C          C       0.76537   0.70556   0.21529 
C          C       0.23463   0.70556   0.28472 
C          C       0.73463   0.79444   0.28472 
C          C       0.26537   0.79444   0.21529 
C          C       0.23463   0.29444   0.28472 
C          C       0.76537   0.29444   0.21529 
C          C       0.28463   0.20397   0.10992 
C          C       0.71537   0.20397   0.39008 
C          C       0.78463   0.70397   0.10992 
C          C       0.21537   0.70397   0.39008 
C          C       0.71537   0.79603   0.39008 
C          C       0.28463   0.79603   0.10992 
C          C       0.21537   0.29603   0.39008 
C          C       0.78463   0.29603   0.10992 
C          C       0.31161   0.17801   0.08658 
C          C       0.68839   0.17801   0.41342 
C          C       0.81161   0.67801   0.08658 
C          C       0.18839   0.67801   0.41342 
C          C       0.68839   0.82199   0.41342 
C          C       0.31161   0.82199   0.08658 
C          C       0.18839   0.32199   0.41342 
C          C       0.81161   0.32199   0.08658 
C          C       0.25924   0.26503   0.25490 
C          C       0.74076   0.26503   0.24510 
C          C       0.75924   0.76503   0.25490 
C          C       0.24076   0.76503   0.24510 
C          C       0.74076   0.73497   0.24510 
C          C       0.25924   0.73497   0.25490 
C          C       0.24076   0.23497   0.24510 
C          C       0.75924   0.23497   0.25490 
N          N       0.06302   0.77724   0.28819 
N          N       0.93698   0.77724   0.21181 
N          N       0.56302   0.27724   0.28819 
N          N       0.43698   0.27724   0.21181 
N          N       0.93698   0.22276   0.21181 
N          N       0.06302   0.22276   0.28819 
N          N       0.43698   0.72276   0.21181 
N          N       0.56302   0.72276   0.28819 
H          H       0.36480   0.12710   0.06369 
H          H       0.63520   0.12710   0.43632 
H          H       0.86480   0.62710   0.06369 
H          H       0.13520   0.62710   0.43632 
H          H       0.63520   0.87290   0.43632 
H          H       0.36480   0.87290   0.06369 
H          H       0.13520   0.37290   0.43632 
H          H       0.86480   0.37290   0.06369 
H          H       0.12371   0.20461   0.44392 
H          H       0.87629   0.20461   0.05608 
H          H       0.62371   0.70461   0.44392 
H          H       0.37629   0.70461   0.05608 
H          H       0.87629   0.79539   0.05608 
H          H       0.12371   0.79539   0.44392 
H          H       0.37629   0.29539   0.05608 
H          H       0.62371   0.29539   0.44392 
H          H       0.19999   0.21027   0.42696 
H          H       0.80001   0.21027   0.07304 
H          H       0.69999   0.71027   0.42696 
H          H       0.30001   0.71027   0.07304 
H          H       0.80001   0.78973   0.07304 
H          H       0.19999   0.78973   0.42696 
H          H       0.30001   0.28973   0.07304 
H          H       0.69999   0.28973   0.42696 
H          H       0.17837   0.25225   0.08980 
H          H       0.82163   0.25225   0.41020 
H          H       0.67837   0.75225   0.08980 
H          H       0.32163   0.75225   0.41020 
H          H       0.82163   0.74775   0.41020 
H          H       0.17837   0.74775   0.08980 
H          H       0.32163   0.24775   0.41020 
H          H       0.67837   0.24775   0.08980 
H          H       0.10196   0.24731   0.10821 
H          H       0.89804   0.24731   0.39179 
H          H       0.60196   0.74731   0.10821 
H          H       0.39804   0.74731   0.39179 
H          H       0.89804   0.75269   0.39179 
H          H       0.10196   0.75269   0.10821 
H          H       0.39804   0.25269   0.39179 
H          H       0.60196   0.25269   0.10821 
H          H       0.44066   0.02691   0.40744 
H          H       0.55934   0.02691   0.09256 
H          H       0.94066   0.52691   0.40744 
H          H       0.05934   0.52691   0.09256 
H          H       0.55934   0.97309   0.09256 
H          H       0.44066   0.97309   0.40744 
H          H       0.05934   0.47309   0.09256 
H          H       0.94066   0.47309   0.40744 
H          H       0.38040   0.06425   0.39139 
H          H       0.61960   0.06425   0.10862 
H          H       0.88040   0.56425   0.39139 
H          H       0.11960   0.56425   0.10862 
H          H       0.61960   0.93575   0.10862 
H          H       0.38040   0.93575   0.39139 
H          H       0.11960   0.43575   0.10862 
H          H       0.88040   0.43575   0.39139 
H          H       0.41712   0.09337   0.05514 
H          H       0.58288   0.09337   0.44487 
H          H       0.91712   0.59337   0.05514 
H          H       0.08288   0.59337   0.44487 
H          H       0.58288   0.90663   0.44487 
H          H       0.41712   0.90663   0.05514 
H          H       0.08288   0.40663   0.44487 
H          H       0.91712   0.40663   0.05514 
H          H       0.47494   0.05435   0.06914 
H          H       0.52506   0.05435   0.43086 
H          H       0.97494   0.55435   0.06914 
H          H       0.02506   0.55435   0.43086 
H          H       0.52506   0.94565   0.43086 
H          H       0.47494   0.94565   0.06914 
H          H       0.02506   0.44565   0.43086 
H          H       0.97494   0.44565   0.06914 
H          H       0.30299   0.13458   0.33434 
H          H       0.69701   0.13458   0.16566 
H          H       0.80299   0.63458   0.33434 
H          H       0.19701   0.63458   0.16566 
H          H       0.69701   0.86542   0.16566 
H          H       0.30299   0.86542   0.33434 
H          H       0.19701   0.36542   0.16566 
H          H       0.80299   0.36542   0.33434 
H          H       0.25685   0.18036   0.37558 
H          H       0.74315   0.18036   0.12442 
H          H       0.75685   0.68036   0.37558 
H          H       0.24315   0.68036   0.12442 
H          H       0.74315   0.81964   0.12442 
H          H       0.25685   0.81964   0.37558 
H          H       0.24315   0.31964   0.12442 
H          H       0.75685   0.31964   0.37558 
H          H       0.27943   0.22329   0.04713 
H          H       0.72057   0.22329   0.45288 
H          H       0.77943   0.72329   0.04713 
H          H       0.22057   0.72329   0.45288 
H          H       0.72057   0.77671   0.45288 
H          H       0.27943   0.77671   0.04713 
H          H       0.22057   0.27671   0.45288 
H          H       0.77943   0.27671   0.04713 
H          H       0.32751   0.17798   0.00672 
H          H       0.67249   0.17798   0.49329 
H          H       0.82751   0.67798   0.00672 
H          H       0.17249   0.67798   0.49329 
H          H       0.67249   0.82202   0.49329 
H          H       0.32751   0.82202   0.00672 
H          H       0.17249   0.32202   0.49329 
H          H       0.82751   0.32202   0.00672 
H          H       0.44907   0.71298   0.13756 
H          H       0.55093   0.71298   0.36245 
H          H       0.94907   0.21298   0.13756 
H          H       0.05093   0.21298   0.36245 
H          H       0.55093   0.28702   0.36245 
H          H       0.44907   0.28702   0.13756 
H          H       0.05093   0.78702   0.36245 
H          H       0.94907   0.78702   0.13756 
H          H       0.45812   0.73056   0.27775 
H          H       0.54188   0.73056   0.22225 
H          H       0.95812   0.23056   0.27775 
H          H       0.04188   0.23056   0.22225 
H          H       0.54188   0.26944   0.22225 
H          H       0.45812   0.26944   0.27775 
H          H       0.04188   0.76944   0.22225 
H          H       0.95812   0.76944   0.27775 
C          C       0.00000   0.48331   0.25000 
C          C       0.50000   0.98331   0.25000 
C          C       0.00000   0.51669   0.25000 
C          C       0.50000   0.01669   0.25000 
N          N       0.36118   0.10605   0.72511 
N          N       0.63882   0.10605   0.77488 
N          N       0.86118   0.60605   0.72511 
N          N       0.13882   0.60605   0.77488 
N          N       0.63882   0.89395   0.77488 
N          N       0.36118   0.89395   0.72511 
N          N       0.13882   0.39395   0.77488 
N          N       0.86118   0.39395   0.72511 
C          C       0.35009   0.12700   0.64514 
C          C       0.64991   0.12700   0.85486 
C          C       0.85009   0.62700   0.64514 
C          C       0.14991   0.62700   0.85486 
C          C       0.64991   0.87300   0.85486 
C          C       0.35009   0.87300   0.64514 
C          C       0.14991   0.37300   0.85486 
C          C       0.85009   0.37300   0.64514 
C          C       0.31899   0.15285   0.66724 
C          C       0.68101   0.15285   0.83277 
C          C       0.81899   0.65285   0.66724 
C          C       0.18101   0.65285   0.83277 
C          C       0.68101   0.84715   0.83277 
C          C       0.31899   0.84715   0.66724 
C          C       0.18101   0.34715   0.83277 
C          C       0.81899   0.34715   0.66724 
C          C       0.13551   0.21485   0.86620 
C          C       0.86449   0.21485   0.63380 
C          C       0.63551   0.71485   0.86620 
C          C       0.36449   0.71485   0.63380 
C          C       0.86449   0.78515   0.63380 
C          C       0.13551   0.78515   0.86620 
C          C       0.36449   0.28515   0.63380 
C          C       0.63551   0.28515   0.86620 
C          C       0.17895   0.21768   0.85581 
C          C       0.82105   0.21768   0.64420 
C          C       0.67895   0.71768   0.85581 
C          C       0.32105   0.71768   0.64420 
C          C       0.82105   0.78232   0.64420 
C          C       0.17895   0.78232   0.85581 
C          C       0.32105   0.28232   0.64420 
C          C       0.67895   0.28232   0.85581 
C          C       0.19483   0.23093   0.75571 
C          C       0.80517   0.23093   0.74429 
C          C       0.69483   0.73093   0.75571 
C          C       0.30517   0.73093   0.74429 
C          C       0.80517   0.76907   0.74429 
C          C       0.19483   0.76907   0.75571 
C          C       0.30517   0.26907   0.74429 
C          C       0.69483   0.26907   0.75571 
C          C       0.16669   0.24160   0.66685 
C          C       0.83331   0.24160   0.83315 
C          C       0.66669   0.74160   0.66685 
C          C       0.33331   0.74160   0.83315 
C          C       0.83331   0.75840   0.83315 
C          C       0.16669   0.75840   0.66685 
C          C       0.33331   0.25840   0.83315 
C          C       0.66669   0.25840   0.66685 
C          C       0.12326   0.23888   0.67747 
C          C       0.87674   0.23888   0.82254 
C          C       0.62326   0.73888   0.67747 
C          C       0.37674   0.73888   0.82254 
C          C       0.87674   0.76112   0.82254 
C          C       0.12326   0.76112   0.67747 
C          C       0.37674   0.26112   0.82254 
C          C       0.62326   0.26112   0.67747 
C          C       0.46076   0.03623   0.73636 
C          C       0.53924   0.03623   0.76364 
C          C       0.96076   0.53623   0.73636 
C          C       0.03924   0.53623   0.76364 
C          C       0.53924   0.96377   0.76364 
C          C       0.46076   0.96377   0.73636 
C          C       0.03924   0.46377   0.76364 
C          C       0.96076   0.46377   0.73636 
C          C       0.43417   0.03978   0.82768 
C          C       0.56583   0.03978   0.67232 
C          C       0.93417   0.53978   0.82768 
C          C       0.06583   0.53978   0.67232 
C          C       0.56583   0.96022   0.67232 
C          C       0.43417   0.96022   0.82768 
C          C       0.06583   0.46022   0.67232 
C          C       0.93417   0.46022   0.82768 
C          C       0.40036   0.06165   0.81951 
C          C       0.59964   0.06165   0.68049 
C          C       0.90036   0.56165   0.81951 
C          C       0.09964   0.56165   0.68049 
C          C       0.59964   0.93835   0.68049 
C          C       0.40036   0.93835   0.81951 
C          C       0.09964   0.43835   0.68049 
C          C       0.90036   0.43835   0.81951 
C          C       0.39346   0.08141   0.72223 
C          C       0.60654   0.08141   0.77778 
C          C       0.89346   0.58141   0.72223 
C          C       0.10654   0.58141   0.77778 
C          C       0.60654   0.91859   0.77778 
C          C       0.39346   0.91859   0.72223 
C          C       0.10654   0.41859   0.77778 
C          C       0.89346   0.41859   0.72223 
C          C       0.42038   0.07813   0.63071 
C          C       0.57962   0.07813   0.86929 
C          C       0.92038   0.57813   0.63071 
C          C       0.07962   0.57813   0.86929 
C          C       0.57962   0.92187   0.86929 
C          C       0.42038   0.92187   0.63071 
C          C       0.07962   0.42187   0.86929 
C          C       0.92038   0.42187   0.63071 
C          C       0.45364   0.05567   0.63815 
C          C       0.54636   0.05567   0.86185 
C          C       0.95364   0.55567   0.63815 
C          C       0.04636   0.55567   0.86185 
C          C       0.54636   0.94433   0.86185 
C          C       0.45364   0.94433   0.63815 
C          C       0.04636   0.44433   0.86185 
C          C       0.95364   0.44433   0.63815 
C          C       0.10746   0.22545   0.77714 
C          C       0.89254   0.22545   0.72286 
C          C       0.60746   0.72545   0.77714 
C          C       0.39254   0.72545   0.72286 
C          C       0.89254   0.77455   0.72286 
C          C       0.10746   0.77455   0.77714 
C          C       0.39254   0.27455   0.72286 
C          C       0.60746   0.27455   0.77714 
C          C       0.29804   0.15368   0.77047 
C          C       0.70196   0.15368   0.72954 
C          C       0.79804   0.65368   0.77047 
C          C       0.20196   0.65368   0.72954 
C          C       0.70196   0.84632   0.72954 
C          C       0.29804   0.84632   0.77047 
C          C       0.20196   0.34632   0.72954 
C          C       0.79804   0.34632   0.77047 
C          C       0.27144   0.17982   0.79409 
C          C       0.72856   0.17982   0.70592 
C          C       0.77144   0.67982   0.79409 
C          C       0.22856   0.67982   0.70592 
C          C       0.72856   0.82018   0.70592 
C          C       0.27144   0.82018   0.79409 
C          C       0.22856   0.32018   0.70592 
C          C       0.77144   0.32018   0.79409 
C          C       0.26537   0.20556   0.71529 
C          C       0.73463   0.20556   0.78472 
C          C       0.76537   0.70556   0.71529 
C          C       0.23463   0.70556   0.78472 
C          C       0.73463   0.79444   0.78472 
C          C       0.26537   0.79444   0.71529 
C          C       0.23463   0.29444   0.78472 
C          C       0.76537   0.29444   0.71529 
C          C       0.28463   0.20397   0.60992 
C          C       0.71537   0.20397   0.89008 
C          C       0.78463   0.70397   0.60992 
C          C       0.21537   0.70397   0.89008 
C          C       0.71537   0.79603   0.89008 
C          C       0.28463   0.79603   0.60992 
C          C       0.21537   0.29603   0.89008 
C          C       0.78463   0.29603   0.60992 
C          C       0.31161   0.17801   0.58659 
C          C       0.68839   0.17801   0.91342 
C          C       0.81161   0.67801   0.58659 
C          C       0.18839   0.67801   0.91342 
C          C       0.68839   0.82199   0.91342 
C          C       0.31161   0.82199   0.58659 
C          C       0.18839   0.32199   0.91342 
C          C       0.81161   0.32199   0.58659 
C          C       0.25924   0.26503   0.75490 
C          C       0.74076   0.26503   0.74510 
C          C       0.75924   0.76503   0.75490 
C          C       0.24076   0.76503   0.74510 
C          C       0.74076   0.73497   0.74510 
C          C       0.25924   0.73497   0.75490 
C          C       0.24076   0.23497   0.74510 
C          C       0.75924   0.23497   0.75490 
N          N       0.06302   0.77724   0.78819 
N          N       0.93698   0.77724   0.71181 
N          N       0.56302   0.27724   0.78819 
N          N       0.43698   0.27724   0.71181 
N          N       0.93698   0.22276   0.71181 
N          N       0.06302   0.22276   0.78819 
N          N       0.43698   0.72276   0.71181 
N          N       0.56302   0.72276   0.78819 
H          H       0.36480   0.12710   0.56368 
H          H       0.63520   0.12710   0.93632 
H          H       0.86480   0.62710   0.56368 
H          H       0.13520   0.62710   0.93632 
H          H       0.63520   0.87290   0.93632 
H          H       0.36480   0.87290   0.56368 
H          H       0.13520   0.37290   0.93632 
H          H       0.86480   0.37290   0.56368 
H          H       0.12371   0.20461   0.94392 
H          H       0.87629   0.20461   0.55608 
H          H       0.62371   0.70461   0.94392 
H          H       0.37629   0.70461   0.55608 
H          H       0.87629   0.79539   0.55608 
H          H       0.12371   0.79539   0.94392 
H          H       0.37629   0.29539   0.55608 
H          H       0.62371   0.29539   0.94392 
H          H       0.19999   0.21027   0.92696 
H          H       0.80001   0.21027   0.57304 
H          H       0.69999   0.71027   0.92696 
H          H       0.30001   0.71027   0.57304 
H          H       0.80001   0.78973   0.57304 
H          H       0.19999   0.78973   0.92696 
H          H       0.30001   0.28973   0.57304 
H          H       0.69999   0.28973   0.92696 
H          H       0.17837   0.25225   0.58981 
H          H       0.82163   0.25225   0.91020 
H          H       0.67837   0.75225   0.58981 
H          H       0.32163   0.75225   0.91020 
H          H       0.82163   0.74775   0.91020 
H          H       0.17837   0.74775   0.58981 
H          H       0.32163   0.24775   0.91020 
H          H       0.67837   0.24775   0.58981 
H          H       0.10196   0.24731   0.60821 
H          H       0.89804   0.24731   0.89179 
H          H       0.60196   0.74731   0.60821 
H          H       0.39804   0.74731   0.89179 
H          H       0.89804   0.75269   0.89179 
H          H       0.10196   0.75269   0.60821 
H          H       0.39804   0.25269   0.89179 
H          H       0.60196   0.25269   0.60821 
H          H       0.44066   0.02691   0.90744 
H          H       0.55934   0.02691   0.59256 
H          H       0.94066   0.52691   0.90744 
H          H       0.05934   0.52691   0.59256 
H          H       0.55934   0.97309   0.59256 
H          H       0.44066   0.97309   0.90744 
H          H       0.05934   0.47309   0.59256 
H          H       0.94066   0.47309   0.90744 
H          H       0.38040   0.06425   0.89139 
H          H       0.61960   0.06425   0.60862 
H          H       0.88040   0.56425   0.89139 
H          H       0.11960   0.56425   0.60862 
H          H       0.61960   0.93575   0.60862 
H          H       0.38040   0.93575   0.89139 
H          H       0.11960   0.43575   0.60862 
H          H       0.88040   0.43575   0.89139 
H          H       0.41712   0.09337   0.55514 
H          H       0.58288   0.09337   0.94487 
H          H       0.91712   0.59337   0.55514 
H          H       0.08288   0.59337   0.94487 
H          H       0.58288   0.90663   0.94487 
H          H       0.41712   0.90663   0.55514 
H          H       0.08288   0.40663   0.94487 
H          H       0.91712   0.40663   0.55514 
H          H       0.47494   0.05435   0.56914 
H          H       0.52506   0.05435   0.93086 
H          H       0.97494   0.55435   0.56914 
H          H       0.02506   0.55435   0.93086 
H          H       0.52506   0.94565   0.93086 
H          H       0.47494   0.94565   0.56914 
H          H       0.02506   0.44565   0.93086 
H          H       0.97494   0.44565   0.56914 
H          H       0.30299   0.13458   0.83434 
H          H       0.69701   0.13458   0.66566 
H          H       0.80299   0.63458   0.83434 
H          H       0.19701   0.63458   0.66566 
H          H       0.69701   0.86542   0.66566 
H          H       0.30299   0.86542   0.83434 
H          H       0.19701   0.36542   0.66566 
H          H       0.80299   0.36542   0.83434 
H          H       0.25685   0.18036   0.87558 
H          H       0.74315   0.18036   0.62443 
H          H       0.75685   0.68036   0.87558 
H          H       0.24315   0.68036   0.62443 
H          H       0.74315   0.81964   0.62443 
H          H       0.25685   0.81964   0.87558 
H          H       0.24315   0.31964   0.62443 
H          H       0.75685   0.31964   0.87558 
H          H       0.27943   0.22329   0.54713 
H          H       0.72057   0.22329   0.95288 
H          H       0.77943   0.72329   0.54713 
H          H       0.22057   0.72329   0.95288 
H          H       0.72057   0.77671   0.95288 
H          H       0.27943   0.77671   0.54713 
H          H       0.22057   0.27671   0.95288 
H          H       0.77943   0.27671   0.54713 
H          H       0.32751   0.17798   0.50672 
H          H       0.67249   0.17798   0.99329 
H          H       0.82751   0.67798   0.50672 
H          H       0.17249   0.67798   0.99329 
H          H       0.67249   0.82202   0.99329 
H          H       0.32751   0.82202   0.50672 
H          H       0.17249   0.32202   0.99329 
H          H       0.82751   0.32202   0.50672 
H          H       0.44907   0.71298   0.63756 
H          H       0.55093   0.71298   0.86245 
H          H       0.94907   0.21298   0.63756 
H          H       0.05093   0.21298   0.86245 
H          H       0.55093   0.28702   0.86245 
H          H       0.44907   0.28702   0.63756 
H          H       0.05093   0.78702   0.86245 
H          H       0.94907   0.78702   0.63756 
H          H       0.45812   0.73056   0.77775 
H          H       0.54188   0.73056   0.72225 
H          H       0.95812   0.23056   0.77775 
H          H       0.04188   0.23056   0.72225 
H          H       0.54188   0.26944   0.72225 
H          H       0.45812   0.26944   0.77775 
H          H       0.04188   0.76944   0.72225 
H          H       0.95812   0.76944   0.77775 
C          C       0.00000   0.48331   0.75000 
C          C       0.50000   0.98331   0.75000 
C          C       0.00000   0.51669   0.75000 
C          C       0.50000   0.01669   0.75000 
