data_crystal
 
_cell_length_a    26.46250
_cell_length_b    44.01910
_cell_length_c    11.26860
_cell_angle_alpha 90.00000
_cell_angle_beta  109.87000
_cell_angle_gamma 90.00000
 
_space_group_name_Hall 'P 1'
_space_group_name_H-M_alt  'P 1'
 
loop_
_symmetry_equiv_pos_as_xyz
 'x,y,z' 
 
loop_
_atom_site_label
_atom_site_type_symbol
_atom_site_fract_x
_atom_site_fract_y
_atom_site_fract_z
N          N       0.34677   0.10834   0.15849 
N          N       0.65323   0.10834   0.34151 
N          N       0.84677   0.60834   0.15849 
N          N       0.15323   0.60834   0.34151 
N          N       0.65323   0.89166   0.34151 
N          N       0.34677   0.89166   0.15849 
N          N       0.15323   0.39166   0.34151 
N          N       0.84677   0.39166   0.15849 
C          C       0.35232   0.13465   0.11277 
C          C       0.64768   0.13465   0.38723 
C          C       0.85232   0.63465   0.11277 
C          C       0.14768   0.63465   0.38723 
C          C       0.64768   0.86535   0.38723 
C          C       0.35232   0.86535   0.11277 
C          C       0.14768   0.36535   0.38723 
C          C       0.85232   0.36535   0.11277 
C          C       0.32538   0.16088   0.14527 
C          C       0.67462   0.16088   0.35474 
C          C       0.82538   0.66088   0.14527 
C          C       0.17462   0.66088   0.35474 
C          C       0.67462   0.83912   0.35474 
C          C       0.32538   0.83912   0.14527 
C          C       0.17462   0.33912   0.35474 
C          C       0.82538   0.33912   0.14527 
C          C       0.12960   0.19594   0.31278 
C          C       0.87040   0.19594   0.18723 
C          C       0.62960   0.69594   0.31278 
C          C       0.37040   0.69594   0.18723 
C          C       0.87040   0.80406   0.18723 
C          C       0.12960   0.80406   0.31278 
C          C       0.37040   0.30406   0.18723 
C          C       0.62960   0.30406   0.31278 
C          C       0.17722   0.21157   0.33056 
C          C       0.82278   0.21157   0.16944 
C          C       0.67722   0.71157   0.33056 
C          C       0.32278   0.71157   0.16944 
C          C       0.82278   0.78843   0.16944 
C          C       0.17722   0.78843   0.33056 
C          C       0.32278   0.28843   0.16944 
C          C       0.67722   0.28843   0.33056 
C          C       0.18551   0.22710   0.23002 
C          C       0.81449   0.22710   0.26999 
C          C       0.68551   0.72710   0.23002 
C          C       0.31449   0.72710   0.26999 
C          C       0.81449   0.77290   0.26999 
C          C       0.18551   0.77290   0.23002 
C          C       0.31449   0.27290   0.26999 
C          C       0.68551   0.27290   0.23002 
C          C       0.14282   0.22994   0.11563 
C          C       0.85718   0.22994   0.38438 
C          C       0.64282   0.72994   0.11563 
C          C       0.35718   0.72994   0.38438 
C          C       0.85718   0.77006   0.38438 
C          C       0.14282   0.77006   0.11563 
C          C       0.35718   0.27006   0.38438 
C          C       0.64282   0.27006   0.11563 
C          C       0.09410   0.21514   0.09893 
C          C       0.90590   0.21514   0.40107 
C          C       0.59410   0.71514   0.09893 
C          C       0.40590   0.71514   0.40107 
C          C       0.90590   0.78486   0.40107 
C          C       0.09410   0.78486   0.09893 
C          C       0.40590   0.28486   0.40107 
C          C       0.59410   0.28486   0.09893 
C          C       0.45029   0.03357   0.20306 
C          C       0.54971   0.03357   0.29694 
C          C       0.95029   0.53357   0.20306 
C          C       0.04971   0.53357   0.29694 
C          C       0.54971   0.96643   0.29694 
C          C       0.45029   0.96643   0.20306 
C          C       0.04971   0.46643   0.29694 
C          C       0.95029   0.46643   0.20306 
C          C       0.41737   0.03686   0.27665 
C          C       0.58263   0.03686   0.22335 
C          C       0.91737   0.53686   0.27665 
C          C       0.08263   0.53686   0.22335 
C          C       0.58263   0.96314   0.22335 
C          C       0.41737   0.96314   0.27665 
C          C       0.08263   0.46314   0.22335 
C          C       0.91737   0.46314   0.27665 
C          C       0.37904   0.05978   0.25041 
C          C       0.62096   0.05978   0.24959 
C          C       0.87904   0.55978   0.25041 
C          C       0.12096   0.55978   0.24959 
C          C       0.62096   0.94022   0.24959 
C          C       0.37904   0.94022   0.25041 
C          C       0.12096   0.44022   0.24959 
C          C       0.87904   0.44022   0.25041 
C          C       0.37593   0.08121   0.15701 
C          C       0.62407   0.08121   0.34299 
C          C       0.87593   0.58121   0.15701 
C          C       0.12407   0.58121   0.34299 
C          C       0.62407   0.91879   0.34299 
C          C       0.37593   0.91879   0.15701 
C          C       0.12407   0.41879   0.34299 
C          C       0.87593   0.41879   0.15701 
C          C       0.40709   0.07746   0.07927 
C          C       0.59291   0.07746   0.42074 
C          C       0.90709   0.57746   0.07927 
C          C       0.09291   0.57746   0.42074 
C          C       0.59291   0.92254   0.42074 
C          C       0.40709   0.92254   0.07927 
C          C       0.09291   0.42254   0.42074 
C          C       0.90709   0.42254   0.07927 
C          C       0.44373   0.05357   0.10208 
C          C       0.55627   0.05357   0.39792 
C          C       0.94373   0.55357   0.10208 
C          C       0.05627   0.55357   0.39792 
C          C       0.55627   0.94643   0.39792 
C          C       0.44373   0.94643   0.10208 
C          C       0.05627   0.44643   0.39792 
C          C       0.94373   0.44643   0.10208 
C          C       0.08854   0.19665   0.19526 
C          C       0.91146   0.19665   0.30474 
C          C       0.58854   0.69665   0.19526 
C          C       0.41146   0.69665   0.30474 
C          C       0.91146   0.80335   0.30474 
C          C       0.08854   0.80335   0.19526 
C          C       0.41146   0.30335   0.30474 
C          C       0.58854   0.30335   0.19526 
C          C       0.30074   0.15781   0.23684 
C          C       0.69926   0.15781   0.26317 
C          C       0.80074   0.65781   0.23684 
C          C       0.19926   0.65781   0.26317 
C          C       0.69926   0.84219   0.26317 
C          C       0.30074   0.84219   0.23684 
C          C       0.19926   0.34219   0.26317 
C          C       0.80074   0.34219   0.23684 
C          C       0.27552   0.18234   0.26944 
C          C       0.72448   0.18234   0.23056 
C          C       0.77552   0.68234   0.26944 
C          C       0.22448   0.68234   0.23056 
C          C       0.72448   0.81766   0.23056 
C          C       0.27552   0.81766   0.26944 
C          C       0.22448   0.31766   0.23056 
C          C       0.77552   0.31766   0.26944 
C          C       0.27339   0.21065   0.21074 
C          C       0.72661   0.21065   0.28925 
C          C       0.77339   0.71065   0.21074 
C          C       0.22661   0.71065   0.28925 
C          C       0.72661   0.78935   0.28925 
C          C       0.27339   0.78935   0.21074 
C          C       0.22661   0.28935   0.28925 
C          C       0.77339   0.28935   0.21074 
C          C       0.29835   0.21375   0.11922 
C          C       0.70165   0.21375   0.38078 
C          C       0.79835   0.71375   0.11922 
C          C       0.20165   0.71375   0.38078 
C          C       0.70165   0.78625   0.38078 
C          C       0.29835   0.78625   0.11922 
C          C       0.20165   0.28625   0.38078 
C          C       0.79835   0.28625   0.11922 
C          C       0.32542   0.18925   0.08922 
C          C       0.67458   0.18925   0.41079 
C          C       0.82542   0.68925   0.08922 
C          C       0.17458   0.68925   0.41079 
C          C       0.67458   0.81075   0.41079 
C          C       0.32542   0.81075   0.08922 
C          C       0.17458   0.31075   0.41079 
C          C       0.82542   0.31075   0.08922 
C          C       0.25926   0.26444   0.26241 
C          C       0.74074   0.26444   0.23759 
C          C       0.75926   0.76444   0.26241 
C          C       0.24074   0.76444   0.23759 
C          C       0.74074   0.73556   0.23759 
C          C       0.25926   0.73556   0.26241 
C          C       0.24074   0.23556   0.23759 
C          C       0.75926   0.23556   0.26241 
C          C       0.04208   0.82354   0.17091 
C          C       0.95792   0.82354   0.32909 
C          C       0.54208   0.32354   0.17091 
C          C       0.45792   0.32354   0.32909 
C          C       0.95792   0.17646   0.32909 
C          C       0.04208   0.17646   0.17091 
C          C       0.45792   0.67646   0.32909 
C          C       0.54208   0.67646   0.17091 
O          O       0.54685   0.34791   0.22485 
O          O       0.45315   0.34791   0.27514 
O          O       0.04685   0.84791   0.22485 
O          O       0.95315   0.84791   0.27514 
O          O       0.45315   0.65209   0.27514 
O          O       0.54685   0.65209   0.22485 
O          O       0.95315   0.15209   0.27514 
O          O       0.04685   0.15209   0.22485 
H          H       0.37762   0.13696   0.04911 
H          H       0.62238   0.13696   0.45089 
H          H       0.87762   0.63696   0.04911 
H          H       0.12238   0.63696   0.45089 
H          H       0.62238   0.86304   0.45089 
H          H       0.37762   0.86304   0.04911 
H          H       0.12238   0.36304   0.45089 
H          H       0.87762   0.36304   0.04911 
H          H       0.12398   0.18253   0.39395 
H          H       0.87602   0.18253   0.10605 
H          H       0.62398   0.68253   0.39395 
H          H       0.37602   0.68253   0.10605 
H          H       0.87602   0.81747   0.10605 
H          H       0.12398   0.81747   0.39395 
H          H       0.37602   0.31747   0.10605 
H          H       0.62398   0.31747   0.39395 
H          H       0.20995   0.21185   0.42746 
H          H       0.79005   0.21185   0.07254 
H          H       0.70995   0.71185   0.42746 
H          H       0.29005   0.71185   0.07254 
H          H       0.79005   0.78815   0.07254 
H          H       0.20995   0.78815   0.42746 
H          H       0.29005   0.28815   0.07254 
H          H       0.70995   0.28815   0.42746 
H          H       0.14779   0.24431   0.03615 
H          H       0.85221   0.24431   0.46385 
H          H       0.64779   0.74431   0.03615 
H          H       0.35221   0.74431   0.46385 
H          H       0.85221   0.75569   0.46385 
H          H       0.14779   0.75569   0.03615 
H          H       0.35221   0.25569   0.46385 
H          H       0.64779   0.25569   0.03615 
H          H       0.05891   0.21809   0.00711 
H          H       0.94109   0.21809   0.49290 
H          H       0.55891   0.71809   0.00711 
H          H       0.44109   0.71809   0.49290 
H          H       0.94109   0.78191   0.49290 
H          H       0.05891   0.78191   0.00711 
H          H       0.44109   0.28191   0.49290 
H          H       0.55891   0.28191   0.00711 
H          H       0.42192   0.02068   0.35864 
H          H       0.57808   0.02068   0.14136 
H          H       0.92192   0.52068   0.35864 
H          H       0.07808   0.52068   0.14136 
H          H       0.57808   0.97932   0.14136 
H          H       0.42192   0.97932   0.35864 
H          H       0.07808   0.47932   0.14136 
H          H       0.92192   0.47932   0.35864 
H          H       0.35000   0.06111   0.30530 
H          H       0.65000   0.06111   0.19470 
H          H       0.85000   0.56111   0.30530 
H          H       0.15000   0.56111   0.19470 
H          H       0.65000   0.93889   0.19470 
H          H       0.35000   0.93889   0.30530 
H          H       0.15000   0.43889   0.19470 
H          H       0.85000   0.43889   0.30530 
H          H       0.40237   0.09389   0.49800 
H          H       0.59763   0.09389   0.00199 
H          H       0.90237   0.59389   0.49800 
H          H       0.09763   0.59389   0.00199 
H          H       0.59763   0.90611   0.00199 
H          H       0.40237   0.90611   0.49800 
H          H       0.09763   0.40611   0.00199 
H          H       0.90237   0.40611   0.49800 
H          H       0.46850   0.05038   0.03766 
H          H       0.53150   0.05038   0.46234 
H          H       0.96850   0.55038   0.03766 
H          H       0.03150   0.55038   0.46234 
H          H       0.53150   0.94962   0.46234 
H          H       0.46850   0.94962   0.03766 
H          H       0.03150   0.44962   0.46234 
H          H       0.96850   0.44962   0.03766 
H          H       0.30140   0.13497   0.28503 
H          H       0.69860   0.13497   0.21498 
H          H       0.80140   0.63497   0.28503 
H          H       0.19860   0.63497   0.21498 
H          H       0.69860   0.86503   0.21498 
H          H       0.30140   0.86503   0.28503 
H          H       0.19860   0.36503   0.21498 
H          H       0.80140   0.36503   0.28503 
H          H       0.25609   0.17971   0.34498 
H          H       0.74391   0.17971   0.15502 
H          H       0.75609   0.67971   0.34498 
H          H       0.24391   0.67971   0.15502 
H          H       0.74391   0.82029   0.15502 
H          H       0.25609   0.82029   0.34498 
H          H       0.24391   0.32029   0.15502 
H          H       0.75609   0.32029   0.34498 
H          H       0.29660   0.23639   0.06882 
H          H       0.70340   0.23639   0.43118 
H          H       0.79660   0.73639   0.06882 
H          H       0.20340   0.73639   0.43118 
H          H       0.70340   0.76361   0.43118 
H          H       0.29660   0.76361   0.06882 
H          H       0.20340   0.26361   0.43118 
H          H       0.79660   0.26361   0.06882 
H          H       0.34752   0.19238   0.01910 
H          H       0.65248   0.19238   0.48091 
H          H       0.84752   0.69238   0.01910 
H          H       0.15248   0.69238   0.48091 
H          H       0.65248   0.80762   0.48091 
H          H       0.34752   0.80762   0.01910 
H          H       0.15248   0.30762   0.48091 
H          H       0.84752   0.30762   0.01910 
H          H       0.00921   0.81028   0.19243 
H          H       0.99079   0.81028   0.30757 
H          H       0.50921   0.31028   0.19243 
H          H       0.49079   0.31028   0.30757 
H          H       0.99079   0.18972   0.30757 
H          H       0.00921   0.18972   0.19243 
H          H       0.49079   0.68972   0.30757 
H          H       0.50921   0.68972   0.19243 
C          C       0.00000   0.48465   0.25000 
C          C       0.50000   0.98465   0.25000 
C          C       0.00000   0.51535   0.25000 
C          C       0.50000   0.01535   0.25000 
N          N       0.34677   0.10834   0.65850 
N          N       0.65323   0.10834   0.84151 
N          N       0.84677   0.60834   0.65850 
N          N       0.15323   0.60834   0.84151 
N          N       0.65323   0.89166   0.84151 
N          N       0.34677   0.89166   0.65850 
N          N       0.15323   0.39166   0.84151 
N          N       0.84677   0.39166   0.65850 
C          C       0.35232   0.13465   0.61277 
C          C       0.64768   0.13465   0.88723 
C          C       0.85232   0.63465   0.61277 
C          C       0.14768   0.63465   0.88723 
C          C       0.64768   0.86535   0.88723 
C          C       0.35232   0.86535   0.61277 
C          C       0.14768   0.36535   0.88723 
C          C       0.85232   0.36535   0.61277 
C          C       0.32538   0.16088   0.64527 
C          C       0.67462   0.16088   0.85474 
C          C       0.82538   0.66088   0.64527 
C          C       0.17462   0.66088   0.85474 
C          C       0.67462   0.83912   0.85474 
C          C       0.32538   0.83912   0.64527 
C          C       0.17462   0.33912   0.85474 
C          C       0.82538   0.33912   0.64527 
C          C       0.12960   0.19594   0.81278 
C          C       0.87040   0.19594   0.68723 
C          C       0.62960   0.69594   0.81278 
C          C       0.37040   0.69594   0.68723 
C          C       0.87040   0.80406   0.68723 
C          C       0.12960   0.80406   0.81278 
C          C       0.37040   0.30406   0.68723 
C          C       0.62960   0.30406   0.81278 
C          C       0.17722   0.21157   0.83056 
C          C       0.82278   0.21157   0.66944 
C          C       0.67722   0.71157   0.83056 
C          C       0.32278   0.71157   0.66944 
C          C       0.82278   0.78843   0.66944 
C          C       0.17722   0.78843   0.83056 
C          C       0.32278   0.28843   0.66944 
C          C       0.67722   0.28843   0.83056 
C          C       0.18551   0.22710   0.73002 
C          C       0.81449   0.22710   0.76998 
C          C       0.68551   0.72710   0.73002 
C          C       0.31449   0.72710   0.76998 
C          C       0.81449   0.77290   0.76998 
C          C       0.18551   0.77290   0.73002 
C          C       0.31449   0.27290   0.76998 
C          C       0.68551   0.27290   0.73002 
C          C       0.14282   0.22994   0.61563 
C          C       0.85718   0.22994   0.88438 
C          C       0.64282   0.72994   0.61563 
C          C       0.35718   0.72994   0.88438 
C          C       0.85718   0.77006   0.88438 
C          C       0.14282   0.77006   0.61563 
C          C       0.35718   0.27006   0.88438 
C          C       0.64282   0.27006   0.61563 
C          C       0.09410   0.21514   0.59893 
C          C       0.90590   0.21514   0.90107 
C          C       0.59410   0.71514   0.59893 
C          C       0.40590   0.71514   0.90107 
C          C       0.90590   0.78486   0.90107 
C          C       0.09410   0.78486   0.59893 
C          C       0.40590   0.28486   0.90107 
C          C       0.59410   0.28486   0.59893 
C          C       0.45029   0.03357   0.70306 
C          C       0.54971   0.03357   0.79694 
C          C       0.95029   0.53357   0.70306 
C          C       0.04971   0.53357   0.79694 
C          C       0.54971   0.96643   0.79694 
C          C       0.45029   0.96643   0.70306 
C          C       0.04971   0.46643   0.79694 
C          C       0.95029   0.46643   0.70306 
C          C       0.41737   0.03686   0.77665 
C          C       0.58263   0.03686   0.72335 
C          C       0.91737   0.53686   0.77665 
C          C       0.08263   0.53686   0.72335 
C          C       0.58263   0.96314   0.72335 
C          C       0.41737   0.96314   0.77665 
C          C       0.08263   0.46314   0.72335 
C          C       0.91737   0.46314   0.77665 
C          C       0.37904   0.05978   0.75042 
C          C       0.62096   0.05978   0.74959 
C          C       0.87904   0.55978   0.75042 
C          C       0.12096   0.55978   0.74959 
C          C       0.62096   0.94022   0.74959 
C          C       0.37904   0.94022   0.75042 
C          C       0.12096   0.44022   0.74959 
C          C       0.87904   0.44022   0.75042 
C          C       0.37593   0.08121   0.65702 
C          C       0.62407   0.08121   0.84299 
C          C       0.87593   0.58121   0.65702 
C          C       0.12407   0.58121   0.84299 
C          C       0.62407   0.91879   0.84299 
C          C       0.37593   0.91879   0.65702 
C          C       0.12407   0.41879   0.84299 
C          C       0.87593   0.41879   0.65702 
C          C       0.40709   0.07746   0.57927 
C          C       0.59291   0.07746   0.92074 
C          C       0.90709   0.57746   0.57927 
C          C       0.09291   0.57746   0.92074 
C          C       0.59291   0.92254   0.92074 
C          C       0.40709   0.92254   0.57927 
C          C       0.09291   0.42254   0.92074 
C          C       0.90709   0.42254   0.57927 
C          C       0.44373   0.05357   0.60208 
C          C       0.55627   0.05357   0.89792 
C          C       0.94373   0.55357   0.60208 
C          C       0.05627   0.55357   0.89792 
C          C       0.55627   0.94643   0.89792 
C          C       0.44373   0.94643   0.60208 
C          C       0.05627   0.44643   0.89792 
C          C       0.94373   0.44643   0.60208 
C          C       0.08854   0.19665   0.69526 
C          C       0.91146   0.19665   0.80474 
C          C       0.58854   0.69665   0.69526 
C          C       0.41146   0.69665   0.80474 
C          C       0.91146   0.80335   0.80474 
C          C       0.08854   0.80335   0.69526 
C          C       0.41146   0.30335   0.80474 
C          C       0.58854   0.30335   0.69526 
C          C       0.30074   0.15781   0.73684 
C          C       0.69926   0.15781   0.76316 
C          C       0.80074   0.65781   0.73684 
C          C       0.19926   0.65781   0.76316 
C          C       0.69926   0.84219   0.76316 
C          C       0.30074   0.84219   0.73684 
C          C       0.19926   0.34219   0.76316 
C          C       0.80074   0.34219   0.73684 
C          C       0.27552   0.18234   0.76945 
C          C       0.72448   0.18234   0.73056 
C          C       0.77552   0.68234   0.76945 
C          C       0.22448   0.68234   0.73056 
C          C       0.72448   0.81766   0.73056 
C          C       0.27552   0.81766   0.76945 
C          C       0.22448   0.31766   0.73056 
C          C       0.77552   0.31766   0.76945 
C          C       0.27339   0.21065   0.71074 
C          C       0.72661   0.21065   0.78926 
C          C       0.77339   0.71065   0.71074 
C          C       0.22661   0.71065   0.78926 
C          C       0.72661   0.78935   0.78926 
C          C       0.27339   0.78935   0.71074 
C          C       0.22661   0.28935   0.78926 
C          C       0.77339   0.28935   0.71074 
C          C       0.29835   0.21375   0.61922 
C          C       0.70165   0.21375   0.88078 
C          C       0.79835   0.71375   0.61922 
C          C       0.20165   0.71375   0.88078 
C          C       0.70165   0.78625   0.88078 
C          C       0.29835   0.78625   0.61922 
C          C       0.20165   0.28625   0.88078 
C          C       0.79835   0.28625   0.61922 
C          C       0.32542   0.18925   0.58922 
C          C       0.67458   0.18925   0.91079 
C          C       0.82542   0.68925   0.58922 
C          C       0.17458   0.68925   0.91079 
C          C       0.67458   0.81075   0.91079 
C          C       0.32542   0.81075   0.58922 
C          C       0.17458   0.31075   0.91079 
C          C       0.82542   0.31075   0.58922 
C          C       0.25926   0.26444   0.76241 
C          C       0.74074   0.26444   0.73759 
C          C       0.75926   0.76444   0.76241 
C          C       0.24074   0.76444   0.73759 
C          C       0.74074   0.73556   0.73759 
C          C       0.25926   0.73556   0.76241 
C          C       0.24074   0.23556   0.73759 
C          C       0.75926   0.23556   0.76241 
C          C       0.04208   0.82354   0.67091 
C          C       0.95792   0.82354   0.82909 
C          C       0.54208   0.32354   0.67091 
C          C       0.45792   0.32354   0.82909 
C          C       0.95792   0.17646   0.82909 
C          C       0.04208   0.17646   0.67091 
C          C       0.45792   0.67646   0.82909 
C          C       0.54208   0.67646   0.67091 
O          O       0.54685   0.34791   0.72486 
O          O       0.45315   0.34791   0.77514 
O          O       0.04685   0.84791   0.72486 
O          O       0.95315   0.84791   0.77514 
O          O       0.45315   0.65209   0.77514 
O          O       0.54685   0.65209   0.72486 
O          O       0.95315   0.15209   0.77514 
O          O       0.04685   0.15209   0.72486 
H          H       0.37762   0.13696   0.54911 
H          H       0.62238   0.13696   0.95090 
H          H       0.87762   0.63696   0.54911 
H          H       0.12238   0.63696   0.95090 
H          H       0.62238   0.86304   0.95090 
H          H       0.37762   0.86304   0.54911 
H          H       0.12238   0.36304   0.95090 
H          H       0.87762   0.36304   0.54911 
H          H       0.12398   0.18253   0.89395 
H          H       0.87602   0.18253   0.60605 
H          H       0.62398   0.68253   0.89395 
H          H       0.37602   0.68253   0.60605 
H          H       0.87602   0.81747   0.60605 
H          H       0.12398   0.81747   0.89395 
H          H       0.37602   0.31747   0.60605 
H          H       0.62398   0.31747   0.89395 
H          H       0.20995   0.21185   0.92746 
H          H       0.79005   0.21185   0.57254 
H          H       0.70995   0.71185   0.92746 
H          H       0.29005   0.71185   0.57254 
H          H       0.79005   0.78815   0.57254 
H          H       0.20995   0.78815   0.92746 
H          H       0.29005   0.28815   0.57254 
H          H       0.70995   0.28815   0.92746 
H          H       0.14779   0.24431   0.53615 
H          H       0.85221   0.24431   0.96385 
H          H       0.64779   0.74431   0.53615 
H          H       0.35221   0.74431   0.96385 
H          H       0.85221   0.75569   0.96385 
H          H       0.14779   0.75569   0.53615 
H          H       0.35221   0.25569   0.96385 
H          H       0.64779   0.25569   0.53615 
H          H       0.05891   0.21809   0.50711 
H          H       0.94109   0.21809   0.99290 
H          H       0.55891   0.71809   0.50711 
H          H       0.44109   0.71809   0.99290 
H          H       0.94109   0.78191   0.99290 
H          H       0.05891   0.78191   0.50711 
H          H       0.44109   0.28191   0.99290 
H          H       0.55891   0.28191   0.50711 
H          H       0.42192   0.02068   0.85865 
H          H       0.57808   0.02068   0.64136 
H          H       0.92192   0.52068   0.85865 
H          H       0.07808   0.52068   0.64136 
H          H       0.57808   0.97932   0.64136 
H          H       0.42192   0.97932   0.85865 
H          H       0.07808   0.47932   0.64136 
H          H       0.92192   0.47932   0.85865 
H          H       0.35000   0.06111   0.80530 
H          H       0.65000   0.06111   0.69470 
H          H       0.85000   0.56111   0.80530 
H          H       0.15000   0.56111   0.69470 
H          H       0.65000   0.93889   0.69470 
H          H       0.35000   0.93889   0.80530 
H          H       0.15000   0.43889   0.69470 
H          H       0.85000   0.43889   0.80530 
H          H       0.40237   0.09389   0.99800 
H          H       0.59763   0.09389   0.50199 
H          H       0.90237   0.59389   0.99800 
H          H       0.09763   0.59389   0.50199 
H          H       0.59763   0.90611   0.50199 
H          H       0.40237   0.90611   0.99800 
H          H       0.09763   0.40611   0.50199 
H          H       0.90237   0.40611   0.99800 
H          H       0.46850   0.05038   0.53766 
H          H       0.53150   0.05038   0.96234 
H          H       0.96850   0.55038   0.53766 
H          H       0.03150   0.55038   0.96234 
H          H       0.53150   0.94962   0.96234 
H          H       0.46850   0.94962   0.53766 
H          H       0.03150   0.44962   0.96234 
H          H       0.96850   0.44962   0.53766 
H          H       0.30140   0.13497   0.78502 
H          H       0.69860   0.13497   0.71498 
H          H       0.80140   0.63497   0.78502 
H          H       0.19860   0.63497   0.71498 
H          H       0.69860   0.86503   0.71498 
H          H       0.30140   0.86503   0.78502 
H          H       0.19860   0.36503   0.71498 
H          H       0.80140   0.36503   0.78502 
H          H       0.25609   0.17971   0.84497 
H          H       0.74391   0.17971   0.65503 
H          H       0.75609   0.67971   0.84497 
H          H       0.24391   0.67971   0.65503 
H          H       0.74391   0.82029   0.65503 
H          H       0.25609   0.82029   0.84497 
H          H       0.24391   0.32029   0.65503 
H          H       0.75609   0.32029   0.84497 
H          H       0.29660   0.23639   0.56883 
H          H       0.70340   0.23639   0.93118 
H          H       0.79660   0.73639   0.56883 
H          H       0.20340   0.73639   0.93118 
H          H       0.70340   0.76361   0.93118 
H          H       0.29660   0.76361   0.56883 
H          H       0.20340   0.26361   0.93118 
H          H       0.79660   0.26361   0.56883 
H          H       0.34752   0.19238   0.51910 
H          H       0.65248   0.19238   0.98091 
H          H       0.84752   0.69238   0.51910 
H          H       0.15248   0.69238   0.98091 
H          H       0.65248   0.80762   0.98091 
H          H       0.34752   0.80762   0.51910 
H          H       0.15248   0.30762   0.98091 
H          H       0.84752   0.30762   0.51910 
H          H       0.00921   0.81028   0.69243 
H          H       0.99079   0.81028   0.80757 
H          H       0.50921   0.31028   0.69243 
H          H       0.49079   0.31028   0.80757 
H          H       0.99079   0.18972   0.80757 
H          H       0.00921   0.18972   0.69243 
H          H       0.49079   0.68972   0.80757 
H          H       0.50921   0.68972   0.69243 
C          C       0.00000   0.48465   0.75000 
C          C       0.50000   0.98465   0.75000 
C          C       0.00000   0.51535   0.75000 
C          C       0.50000   0.01535   0.75000 
