data_crystal
 
_cell_length_a    26.32520
_cell_length_b    44.54260
_cell_length_c    11.29440
_cell_angle_alpha 90.00000
_cell_angle_beta  110.95000
_cell_angle_gamma 90.00000
 
_space_group_name_Hall 'P 1'
_space_group_name_H-M_alt  'P 1'
 
loop_
_symmetry_equiv_pos_as_xyz
 'x,y,z' 
 
loop_
_atom_site_label
_atom_site_type_symbol
_atom_site_fract_x
_atom_site_fract_y
_atom_site_fract_z
N          N       0.33816   0.10492   0.18023 
N          N       0.66184   0.10492   0.31977 
N          N       0.83816   0.60492   0.18023 
N          N       0.16184   0.60492   0.31977 
N          N       0.66184   0.89508   0.31977 
N          N       0.33816   0.89508   0.18023 
N          N       0.16184   0.39508   0.31977 
N          N       0.83816   0.39508   0.18023 
C          C       0.33337   0.12977   0.11491 
C          C       0.66663   0.12977   0.38509 
C          C       0.83337   0.62977   0.11491 
C          C       0.16663   0.62977   0.38509 
C          C       0.66663   0.87023   0.38509 
C          C       0.33337   0.87023   0.11491 
C          C       0.16663   0.37023   0.38509 
C          C       0.83337   0.37023   0.11491 
C          C       0.30347   0.15608   0.13806 
C          C       0.69653   0.15608   0.36195 
C          C       0.80347   0.65608   0.13806 
C          C       0.19653   0.65608   0.36195 
C          C       0.69653   0.84392   0.36195 
C          C       0.30347   0.84392   0.13806 
C          C       0.19653   0.34392   0.36195 
C          C       0.80347   0.34392   0.13806 
C          C       0.10164   0.22567   0.28545 
C          C       0.89836   0.22567   0.21455 
C          C       0.60164   0.72567   0.28545 
C          C       0.39836   0.72567   0.21455 
C          C       0.89836   0.77433   0.21455 
C          C       0.10164   0.77433   0.28545 
C          C       0.39836   0.27433   0.21455 
C          C       0.60164   0.27433   0.28545 
C          C       0.15653   0.22478   0.30295 
C          C       0.84347   0.22478   0.19704 
C          C       0.65653   0.72478   0.30295 
C          C       0.34347   0.72478   0.19704 
C          C       0.84347   0.77522   0.19704 
C          C       0.15653   0.77522   0.30295 
C          C       0.34347   0.27522   0.19704 
C          C       0.65653   0.27522   0.30295 
C          C       0.17607   0.23797   0.21343 
C          C       0.82393   0.23797   0.28658 
C          C       0.67607   0.73797   0.21343 
C          C       0.32393   0.73797   0.28658 
C          C       0.82393   0.76203   0.28658 
C          C       0.17607   0.76203   0.21343 
C          C       0.32393   0.26203   0.28658 
C          C       0.67607   0.26203   0.21343 
C          C       0.13981   0.25218   0.10691 
C          C       0.86019   0.25218   0.39309 
C          C       0.63981   0.75218   0.10691 
C          C       0.36019   0.75218   0.39309 
C          C       0.86019   0.74782   0.39309 
C          C       0.13981   0.74782   0.10691 
C          C       0.36019   0.24782   0.39309 
C          C       0.63981   0.24782   0.10691 
C          C       0.08498   0.25311   0.08986 
C          C       0.91502   0.25311   0.41014 
C          C       0.58498   0.75311   0.08986 
C          C       0.41502   0.75311   0.41014 
C          C       0.91502   0.74689   0.41014 
C          C       0.08498   0.74689   0.08986 
C          C       0.41502   0.24689   0.41014 
C          C       0.58498   0.24689   0.08986 
H          H       0.35475   0.13281   0.04946 
H          H       0.64525   0.13281   0.45054 
H          H       0.85475   0.63281   0.04946 
H          H       0.14525   0.63281   0.45054 
H          H       0.64525   0.86719   0.45054 
H          H       0.35475   0.86719   0.04946 
H          H       0.14525   0.36719   0.45054 
H          H       0.85475   0.36719   0.04946 
H          H       0.08687   0.21555   0.35488 
H          H       0.91313   0.21555   0.14512 
H          H       0.58687   0.71555   0.35488 
H          H       0.41313   0.71555   0.14512 
H          H       0.91313   0.78445   0.14512 
H          H       0.08687   0.78445   0.35488 
H          H       0.41313   0.28445   0.14512 
H          H       0.58687   0.28445   0.35488 
H          H       0.18368   0.21440   0.38755 
H          H       0.81632   0.21440   0.11245 
H          H       0.68368   0.71440   0.38755 
H          H       0.31632   0.71440   0.11245 
H          H       0.81632   0.78560   0.11245 
H          H       0.18368   0.78560   0.38755 
H          H       0.31632   0.28560   0.11245 
H          H       0.68368   0.28560   0.38755 
H          H       0.05733   0.26415   0.00751 
H          H       0.94267   0.26415   0.49250 
H          H       0.55733   0.76415   0.00751 
H          H       0.44267   0.76415   0.49250 
H          H       0.94267   0.73585   0.49250 
H          H       0.05733   0.73585   0.00751 
H          H       0.44267   0.23585   0.49250 
H          H       0.55733   0.23585   0.00751 
C          C       0.44996   0.03359   0.21213 
C          C       0.55004   0.03359   0.28787 
C          C       0.94996   0.53359   0.21213 
C          C       0.05004   0.53359   0.28787 
C          C       0.55004   0.96641   0.28787 
C          C       0.44996   0.96641   0.21213 
C          C       0.05004   0.46641   0.28787 
C          C       0.94996   0.46641   0.21213 
C          C       0.41827   0.03460   0.28930 
C          C       0.58173   0.03460   0.21069 
C          C       0.91827   0.53460   0.28930 
C          C       0.08173   0.53460   0.21069 
C          C       0.58173   0.96540   0.21069 
C          C       0.41827   0.96540   0.28930 
C          C       0.08173   0.46540   0.21069 
C          C       0.91827   0.46540   0.28930 
C          C       0.37843   0.05671   0.27026 
C          C       0.62157   0.05671   0.22974 
C          C       0.87843   0.55671   0.27026 
C          C       0.12157   0.55671   0.22974 
C          C       0.62157   0.94329   0.22974 
C          C       0.37843   0.94329   0.27026 
C          C       0.12157   0.44329   0.22974 
C          C       0.87843   0.44329   0.27026 
C          C       0.37175   0.07931   0.17859 
C          C       0.62825   0.07931   0.32141 
C          C       0.87175   0.57931   0.17859 
C          C       0.12825   0.57931   0.32141 
C          C       0.62825   0.92069   0.32141 
C          C       0.37175   0.92069   0.17859 
C          C       0.12825   0.42069   0.32141 
C          C       0.87175   0.42069   0.17859 
C          C       0.40202   0.07748   0.09720 
C          C       0.59798   0.07748   0.40280 
C          C       0.90202   0.57748   0.09720 
C          C       0.09798   0.57748   0.40280 
C          C       0.59798   0.92252   0.40280 
C          C       0.40202   0.92252   0.09720 
C          C       0.09798   0.42252   0.40280 
C          C       0.90202   0.42252   0.09720 
C          C       0.44073   0.05482   0.11427 
C          C       0.55927   0.05482   0.38573 
C          C       0.94073   0.55482   0.11427 
C          C       0.05927   0.55482   0.38573 
C          C       0.55927   0.94518   0.38573 
C          C       0.44073   0.94518   0.11427 
C          C       0.05927   0.44518   0.38573 
C          C       0.94073   0.44518   0.11427 
C          C       0.06588   0.23980   0.17893 
C          C       0.93412   0.23980   0.32107 
C          C       0.56588   0.73980   0.17893 
C          C       0.43412   0.73980   0.32107 
C          C       0.93412   0.76020   0.32107 
C          C       0.06588   0.76020   0.17893 
C          C       0.43412   0.26020   0.32107 
C          C       0.56588   0.26020   0.17893 
C          C       0.27652   0.15494   0.22604 
C          C       0.72348   0.15494   0.27397 
C          C       0.77652   0.65494   0.22604 
C          C       0.22348   0.65494   0.27397 
C          C       0.72348   0.84506   0.27397 
C          C       0.27652   0.84506   0.22604 
C          C       0.22348   0.34506   0.27397 
C          C       0.77652   0.34506   0.22604 
C          C       0.25264   0.18110   0.25367 
C          C       0.74736   0.18110   0.24633 
C          C       0.75264   0.68110   0.25367 
C          C       0.24736   0.68110   0.24633 
C          C       0.74736   0.81890   0.24633 
C          C       0.25264   0.81890   0.25367 
C          C       0.24736   0.31890   0.24633 
C          C       0.75264   0.31890   0.25367 
C          C       0.25583   0.20888   0.19520 
C          C       0.74417   0.20888   0.30480 
C          C       0.75583   0.70888   0.19520 
C          C       0.24417   0.70888   0.30480 
C          C       0.74417   0.79112   0.30480 
C          C       0.25583   0.79112   0.19520 
C          C       0.24417   0.29112   0.30480 
C          C       0.75583   0.29112   0.19520 
C          C       0.28001   0.20942   0.10215 
C          C       0.71999   0.20942   0.39785 
C          C       0.78001   0.70942   0.10215 
C          C       0.21999   0.70942   0.39785 
C          C       0.71999   0.79058   0.39785 
C          C       0.28001   0.79058   0.10215 
C          C       0.21999   0.29058   0.39785 
C          C       0.78001   0.29058   0.10215 
C          C       0.30448   0.18347   0.07559 
C          C       0.69552   0.18347   0.42441 
C          C       0.80448   0.68347   0.07559 
C          C       0.19552   0.68347   0.42441 
C          C       0.69552   0.81653   0.42441 
C          C       0.30448   0.81653   0.07559 
C          C       0.19552   0.31653   0.42441 
C          C       0.80448   0.31653   0.07559 
H          H       0.35508   0.05737   0.33254 
H          H       0.64492   0.05737   0.16745 
H          H       0.85508   0.55737   0.33254 
H          H       0.14492   0.55737   0.16745 
H          H       0.64492   0.94263   0.16745 
H          H       0.35508   0.94263   0.33254 
H          H       0.14492   0.44263   0.16745 
H          H       0.85508   0.44263   0.33254 
H          H       0.39776   0.09384   0.02311 
H          H       0.60224   0.09384   0.47689 
H          H       0.89776   0.59384   0.02311 
H          H       0.10224   0.59384   0.47689 
H          H       0.60224   0.90616   0.47689 
H          H       0.39776   0.90616   0.02311 
H          H       0.10224   0.40616   0.47689 
H          H       0.89776   0.40616   0.02311 
H          H       0.46563   0.05482   0.05536 
H          H       0.53437   0.05482   0.44465 
H          H       0.96563   0.55482   0.05536 
H          H       0.03437   0.55482   0.44465 
H          H       0.53437   0.94518   0.44465 
H          H       0.46563   0.94518   0.05536 
H          H       0.03437   0.44518   0.44465 
H          H       0.96563   0.44518   0.05536 
H          H       0.27495   0.13409   0.27564 
H          H       0.72505   0.13409   0.22437 
H          H       0.77495   0.63409   0.27564 
H          H       0.22505   0.63409   0.22437 
H          H       0.72505   0.86591   0.22437 
H          H       0.27495   0.86591   0.27564 
H          H       0.22505   0.36591   0.22437 
H          H       0.77495   0.36591   0.27564 
H          H       0.23323   0.17965   0.32360 
H          H       0.76677   0.17965   0.17640 
H          H       0.73323   0.67965   0.32360 
H          H       0.26677   0.67965   0.17640 
H          H       0.76677   0.82035   0.17640 
H          H       0.23323   0.82035   0.32360 
H          H       0.26677   0.32035   0.17640 
H          H       0.73323   0.32035   0.32360 
H          H       0.32498   0.18488   0.00740 
H          H       0.67502   0.18488   0.49260 
H          H       0.82498   0.68488   0.00740 
H          H       0.17502   0.68488   0.49260 
H          H       0.67502   0.81512   0.49260 
H          H       0.32498   0.81512   0.00740 
H          H       0.17502   0.31512   0.49260 
H          H       0.82498   0.31512   0.00740 
C          C       0.26568   0.26265   0.26889 
C          C       0.73432   0.26265   0.23111 
C          C       0.76568   0.76265   0.26889 
C          C       0.23432   0.76265   0.23111 
C          C       0.73432   0.73735   0.23111 
C          C       0.26568   0.73735   0.26889 
C          C       0.23432   0.23735   0.23111 
C          C       0.76568   0.23735   0.26889 
H          H       0.15385   0.73750   0.03707 
H          H       0.84615   0.73750   0.46294 
H          H       0.65385   0.23750   0.03707 
H          H       0.34615   0.23750   0.46294 
H          H       0.84615   0.26250   0.46294 
H          H       0.15385   0.26250   0.03707 
H          H       0.34615   0.76250   0.46294 
H          H       0.65385   0.76250   0.03707 
H          H       0.21956   0.73010   0.44884 
H          H       0.78044   0.73010   0.05115 
H          H       0.71956   0.23010   0.44884 
H          H       0.28044   0.23010   0.05115 
H          H       0.78044   0.26990   0.05115 
H          H       0.21956   0.26990   0.44884 
H          H       0.28044   0.76990   0.05115 
H          H       0.71956   0.76990   0.44884 
H          H       0.02343   0.75951   0.16557 
H          H       0.97657   0.75951   0.33442 
H          H       0.52343   0.25951   0.16557 
H          H       0.47657   0.25951   0.33442 
H          H       0.97657   0.24049   0.33442 
H          H       0.02343   0.24049   0.16557 
H          H       0.47657   0.74049   0.33442 
H          H       0.52343   0.74049   0.16557 
H          H       0.57484   0.98279   0.13181 
H          H       0.42516   0.98279   0.36819 
H          H       0.07484   0.48279   0.13181 
H          H       0.92516   0.48279   0.36819 
H          H       0.42516   0.01721   0.36819 
H          H       0.57484   0.01721   0.13181 
H          H       0.92516   0.51721   0.36819 
H          H       0.07484   0.51721   0.13181 
C          C       0.00000   0.48461   0.25000 
C          C       0.50000   0.98461   0.25000 
C          C      -0.00000   0.51539   0.25000 
C          C       0.50000   0.01539   0.25000 
N          N       0.33816   0.10492   0.68023 
N          N       0.66184   0.10492   0.81977 
N          N       0.83816   0.60492   0.68023 
N          N       0.16184   0.60492   0.81977 
N          N       0.66184   0.89508   0.81977 
N          N       0.33816   0.89508   0.68023 
N          N       0.16184   0.39508   0.81977 
N          N       0.83816   0.39508   0.68023 
C          C       0.33337   0.12977   0.61491 
C          C       0.66663   0.12977   0.88509 
C          C       0.83337   0.62977   0.61491 
C          C       0.16663   0.62977   0.88509 
C          C       0.66663   0.87023   0.88509 
C          C       0.33337   0.87023   0.61491 
C          C       0.16663   0.37023   0.88509 
C          C       0.83337   0.37023   0.61491 
C          C       0.30347   0.15608   0.63806 
C          C       0.69653   0.15608   0.86195 
C          C       0.80347   0.65608   0.63806 
C          C       0.19653   0.65608   0.86195 
C          C       0.69653   0.84392   0.86195 
C          C       0.30347   0.84392   0.63806 
C          C       0.19653   0.34392   0.86195 
C          C       0.80347   0.34392   0.63806 
C          C       0.10164   0.22567   0.78545 
C          C       0.89836   0.22567   0.71455 
C          C       0.60164   0.72567   0.78545 
C          C       0.39836   0.72567   0.71455 
C          C       0.89836   0.77433   0.71455 
C          C       0.10164   0.77433   0.78545 
C          C       0.39836   0.27433   0.71455 
C          C       0.60164   0.27433   0.78545 
C          C       0.15653   0.22478   0.80296 
C          C       0.84347   0.22478   0.69705 
C          C       0.65653   0.72478   0.80296 
C          C       0.34347   0.72478   0.69705 
C          C       0.84347   0.77522   0.69705 
C          C       0.15653   0.77522   0.80296 
C          C       0.34347   0.27522   0.69705 
C          C       0.65653   0.27522   0.80296 
C          C       0.17607   0.23797   0.71343 
C          C       0.82393   0.23797   0.78658 
C          C       0.67607   0.73797   0.71343 
C          C       0.32393   0.73797   0.78658 
C          C       0.82393   0.76203   0.78658 
C          C       0.17607   0.76203   0.71343 
C          C       0.32393   0.26203   0.78658 
C          C       0.67607   0.26203   0.71343 
C          C       0.13981   0.25218   0.60691 
C          C       0.86019   0.25218   0.89309 
C          C       0.63981   0.75218   0.60691 
C          C       0.36019   0.75218   0.89309 
C          C       0.86019   0.74782   0.89309 
C          C       0.13981   0.74782   0.60691 
C          C       0.36019   0.24782   0.89309 
C          C       0.63981   0.24782   0.60691 
C          C       0.08498   0.25311   0.58986 
C          C       0.91502   0.25311   0.91014 
C          C       0.58498   0.75311   0.58986 
C          C       0.41502   0.75311   0.91014 
C          C       0.91502   0.74689   0.91014 
C          C       0.08498   0.74689   0.58986 
C          C       0.41502   0.24689   0.91014 
C          C       0.58498   0.24689   0.58986 
H          H       0.35475   0.13281   0.54946 
H          H       0.64525   0.13281   0.95054 
H          H       0.85475   0.63281   0.54946 
H          H       0.14525   0.63281   0.95054 
H          H       0.64525   0.86719   0.95054 
H          H       0.35475   0.86719   0.54946 
H          H       0.14525   0.36719   0.95054 
H          H       0.85475   0.36719   0.54946 
H          H       0.08687   0.21555   0.85488 
H          H       0.91313   0.21555   0.64512 
H          H       0.58687   0.71555   0.85488 
H          H       0.41313   0.71555   0.64512 
H          H       0.91313   0.78445   0.64512 
H          H       0.08687   0.78445   0.85488 
H          H       0.41313   0.28445   0.64512 
H          H       0.58687   0.28445   0.85488 
H          H       0.18368   0.21440   0.88756 
H          H       0.81632   0.21440   0.61245 
H          H       0.68368   0.71440   0.88756 
H          H       0.31632   0.71440   0.61245 
H          H       0.81632   0.78560   0.61245 
H          H       0.18368   0.78560   0.88756 
H          H       0.31632   0.28560   0.61245 
H          H       0.68368   0.28560   0.88756 
H          H       0.05733   0.26415   0.50750 
H          H       0.94267   0.26415   0.99250 
H          H       0.55733   0.76415   0.50750 
H          H       0.44267   0.76415   0.99250 
H          H       0.94267   0.73585   0.99250 
H          H       0.05733   0.73585   0.50750 
H          H       0.44267   0.23585   0.99250 
H          H       0.55733   0.23585   0.50750 
C          C       0.44996   0.03359   0.71213 
C          C       0.55004   0.03359   0.78787 
C          C       0.94996   0.53359   0.71213 
C          C       0.05004   0.53359   0.78787 
C          C       0.55004   0.96641   0.78787 
C          C       0.44996   0.96641   0.71213 
C          C       0.05004   0.46641   0.78787 
C          C       0.94996   0.46641   0.71213 
C          C       0.41827   0.03460   0.78930 
C          C       0.58173   0.03460   0.71070 
C          C       0.91827   0.53460   0.78930 
C          C       0.08173   0.53460   0.71070 
C          C       0.58173   0.96540   0.71070 
C          C       0.41827   0.96540   0.78930 
C          C       0.08173   0.46540   0.71070 
C          C       0.91827   0.46540   0.78930 
C          C       0.37843   0.05671   0.77026 
C          C       0.62157   0.05671   0.72974 
C          C       0.87843   0.55671   0.77026 
C          C       0.12157   0.55671   0.72974 
C          C       0.62157   0.94329   0.72974 
C          C       0.37843   0.94329   0.77026 
C          C       0.12157   0.44329   0.72974 
C          C       0.87843   0.44329   0.77026 
C          C       0.37175   0.07931   0.67859 
C          C       0.62825   0.07931   0.82141 
C          C       0.87175   0.57931   0.67859 
C          C       0.12825   0.57931   0.82141 
C          C       0.62825   0.92069   0.82141 
C          C       0.37175   0.92069   0.67859 
C          C       0.12825   0.42069   0.82141 
C          C       0.87175   0.42069   0.67859 
C          C       0.40202   0.07748   0.59720 
C          C       0.59798   0.07748   0.90280 
C          C       0.90202   0.57748   0.59720 
C          C       0.09798   0.57748   0.90280 
C          C       0.59798   0.92252   0.90280 
C          C       0.40202   0.92252   0.59720 
C          C       0.09798   0.42252   0.90280 
C          C       0.90202   0.42252   0.59720 
C          C       0.44073   0.05482   0.61427 
C          C       0.55927   0.05482   0.88573 
C          C       0.94073   0.55482   0.61427 
C          C       0.05927   0.55482   0.88573 
C          C       0.55927   0.94518   0.88573 
C          C       0.44073   0.94518   0.61427 
C          C       0.05927   0.44518   0.88573 
C          C       0.94073   0.44518   0.61427 
C          C       0.06588   0.23980   0.67893 
C          C       0.93412   0.23980   0.82107 
C          C       0.56588   0.73980   0.67893 
C          C       0.43412   0.73980   0.82107 
C          C       0.93412   0.76020   0.82107 
C          C       0.06588   0.76020   0.67893 
C          C       0.43412   0.26020   0.82107 
C          C       0.56588   0.26020   0.67893 
C          C       0.27652   0.15494   0.72603 
C          C       0.72348   0.15494   0.77396 
C          C       0.77652   0.65494   0.72603 
C          C       0.22348   0.65494   0.77396 
C          C       0.72348   0.84506   0.77396 
C          C       0.27652   0.84506   0.72603 
C          C       0.22348   0.34506   0.77396 
C          C       0.77652   0.34506   0.72603 
C          C       0.25264   0.18110   0.75367 
C          C       0.74736   0.18110   0.74633 
C          C       0.75264   0.68110   0.75367 
C          C       0.24736   0.68110   0.74633 
C          C       0.74736   0.81890   0.74633 
C          C       0.25264   0.81890   0.75367 
C          C       0.24736   0.31890   0.74633 
C          C       0.75264   0.31890   0.75367 
C          C       0.25583   0.20888   0.69520 
C          C       0.74417   0.20888   0.80480 
C          C       0.75583   0.70888   0.69520 
C          C       0.24417   0.70888   0.80480 
C          C       0.74417   0.79112   0.80480 
C          C       0.25583   0.79112   0.69520 
C          C       0.24417   0.29112   0.80480 
C          C       0.75583   0.29112   0.69520 
C          C       0.28001   0.20942   0.60215 
C          C       0.71999   0.20942   0.89784 
C          C       0.78001   0.70942   0.60215 
C          C       0.21999   0.70942   0.89784 
C          C       0.71999   0.79058   0.89784 
C          C       0.28001   0.79058   0.60215 
C          C       0.21999   0.29058   0.89784 
C          C       0.78001   0.29058   0.60215 
C          C       0.30448   0.18347   0.57559 
C          C       0.69552   0.18347   0.92441 
C          C       0.80448   0.68347   0.57559 
C          C       0.19552   0.68347   0.92441 
C          C       0.69552   0.81653   0.92441 
C          C       0.30448   0.81653   0.57559 
C          C       0.19552   0.31653   0.92441 
C          C       0.80448   0.31653   0.57559 
H          H       0.35508   0.05737   0.83254 
H          H       0.64492   0.05737   0.66746 
H          H       0.85508   0.55737   0.83254 
H          H       0.14492   0.55737   0.66746 
H          H       0.64492   0.94263   0.66746 
H          H       0.35508   0.94263   0.83254 
H          H       0.14492   0.44263   0.66746 
H          H       0.85508   0.44263   0.83254 
H          H       0.39776   0.09384   0.52311 
H          H       0.60224   0.09384   0.97689 
H          H       0.89776   0.59384   0.52311 
H          H       0.10224   0.59384   0.97689 
H          H       0.60224   0.90616   0.97689 
H          H       0.39776   0.90616   0.52311 
H          H       0.10224   0.40616   0.97689 
H          H       0.89776   0.40616   0.52311 
H          H       0.46563   0.05482   0.55536 
H          H       0.53437   0.05482   0.94465 
H          H       0.96563   0.55482   0.55536 
H          H       0.03437   0.55482   0.94465 
H          H       0.53437   0.94518   0.94465 
H          H       0.46563   0.94518   0.55536 
H          H       0.03437   0.44518   0.94465 
H          H       0.96563   0.44518   0.55536 
H          H       0.27495   0.13409   0.77563 
H          H       0.72505   0.13409   0.72437 
H          H       0.77495   0.63409   0.77563 
H          H       0.22505   0.63409   0.72437 
H          H       0.72505   0.86591   0.72437 
H          H       0.27495   0.86591   0.77563 
H          H       0.22505   0.36591   0.72437 
H          H       0.77495   0.36591   0.77563 
H          H       0.23323   0.17965   0.82360 
H          H       0.76677   0.17965   0.67640 
H          H       0.73323   0.67965   0.82360 
H          H       0.26677   0.67965   0.67640 
H          H       0.76677   0.82035   0.67640 
H          H       0.23323   0.82035   0.82360 
H          H       0.26677   0.32035   0.67640 
H          H       0.73323   0.32035   0.82360 
H          H       0.32498   0.18488   0.50740 
H          H       0.67502   0.18488   0.99260 
H          H       0.82498   0.68488   0.50740 
H          H       0.17502   0.68488   0.99260 
H          H       0.67502   0.81512   0.99260 
H          H       0.32498   0.81512   0.50740 
H          H       0.17502   0.31512   0.99260 
H          H       0.82498   0.31512   0.50740 
C          C       0.26568   0.26265   0.76889 
C          C       0.73432   0.26265   0.73111 
C          C       0.76568   0.76265   0.76889 
C          C       0.23432   0.76265   0.73111 
C          C       0.73432   0.73735   0.73111 
C          C       0.26568   0.73735   0.76889 
C          C       0.23432   0.23735   0.73111 
C          C       0.76568   0.23735   0.76889 
H          H       0.15385   0.73750   0.53707 
H          H       0.84615   0.73750   0.96294 
H          H       0.65385   0.23750   0.53707 
H          H       0.34615   0.23750   0.96294 
H          H       0.84615   0.26250   0.96294 
H          H       0.15385   0.26250   0.53707 
H          H       0.34615   0.76250   0.96294 
H          H       0.65385   0.76250   0.53707 
H          H       0.21956   0.73010   0.94885 
H          H       0.78044   0.73010   0.55116 
H          H       0.71956   0.23010   0.94885 
H          H       0.28044   0.23010   0.55116 
H          H       0.78044   0.26990   0.55116 
H          H       0.21956   0.26990   0.94885 
H          H       0.28044   0.76990   0.55116 
H          H       0.71956   0.76990   0.94885 
H          H       0.02343   0.75951   0.66558 
H          H       0.97657   0.75951   0.83442 
H          H       0.52343   0.25951   0.66558 
H          H       0.47657   0.25951   0.83442 
H          H       0.97657   0.24049   0.83442 
H          H       0.02343   0.24049   0.66558 
H          H       0.47657   0.74049   0.83442 
H          H       0.52343   0.74049   0.66558 
H          H       0.57484   0.98279   0.63181 
H          H       0.42516   0.98279   0.86819 
H          H       0.07484   0.48279   0.63181 
H          H       0.92516   0.48279   0.86819 
H          H       0.42516   0.01721   0.86819 
H          H       0.57484   0.01721   0.63181 
H          H       0.92516   0.51721   0.86819 
H          H       0.07484   0.51721   0.63181 
C          C       0.00000   0.48461   0.75000 
C          C       0.50000   0.98461   0.75000 
C          C       0.00000   0.51539   0.75000 
C          C       0.50000   0.01539   0.75000 
