data_crystal
 
_cell_length_a    30.51200
_cell_length_b    30.51200
_cell_length_c    7.38400
_cell_angle_alpha 90.00000
_cell_angle_beta  90.00000
_cell_angle_gamma 90.00000
 
_space_group_name_Hall 'P 1'
_space_group_name_H-M_alt  'P 1'
 
loop_
_symmetry_equiv_pos_as_xyz
 'x,y,z' 
 
loop_
_atom_site_label
_atom_site_type_symbol
_atom_site_fract_x
_atom_site_fract_y
_atom_site_fract_z
C          C       0.98870   0.03860   0.12810 
C          C       0.01130   0.96140   0.12810 
C          C       0.03860   0.01130   0.87190 
C          C       0.96140   0.98870   0.87190 
C          C       0.51130   0.03860   0.62190 
C          C       0.48870   0.96140   0.62190 
C          C       0.46140   0.01130   0.87810 
C          C       0.53860   0.98870   0.87810 
C          C       0.48870   0.53860   0.62810 
C          C       0.51130   0.46140   0.62810 
C          C       0.53860   0.51130   0.37190 
C          C       0.46140   0.48870   0.37190 
C          C       0.01130   0.53860   0.12190 
C          C       0.98870   0.46140   0.12190 
C          C       0.96140   0.51130   0.37810 
C          C       0.03860   0.48870   0.37810 
C          C       0.95060   0.03510   0.23400 
C          C       0.04940   0.96490   0.23400 
C          C       0.03510   0.04940   0.76600 
C          C       0.96490   0.95060   0.76600 
C          C       0.54940   0.03510   0.51600 
C          C       0.45060   0.96490   0.51600 
C          C       0.46490   0.04940   0.98400 
C          C       0.53510   0.95060   0.98400 
C          C       0.45060   0.53510   0.73400 
C          C       0.54940   0.46490   0.73400 
C          C       0.53510   0.54940   0.26600 
C          C       0.46490   0.45060   0.26600 
C          C       0.04940   0.53510   0.01600 
C          C       0.95060   0.46490   0.01600 
C          C       0.96490   0.54940   0.48400 
C          C       0.03510   0.45060   0.48400 
C          C       0.93930   0.06890   0.35500 
C          C       0.06070   0.93110   0.35500 
C          C       0.06890   0.06070   0.64500 
C          C       0.93110   0.93930   0.64500 
C          C       0.56070   0.06890   0.39500 
C          C       0.43930   0.93110   0.39500 
C          C       0.43110   0.06070   0.10500 
C          C       0.56890   0.93930   0.10500 
C          C       0.43930   0.56890   0.85500 
C          C       0.56070   0.43110   0.85500 
C          C       0.56890   0.56070   0.14500 
C          C       0.43110   0.43930   0.14500 
C          C       0.06070   0.56890   0.89500 
C          C       0.93930   0.43110   0.89500 
C          C       0.93110   0.56070   0.60500 
C          C       0.06890   0.43930   0.60500 
C          C       0.96620   0.10620   0.37000 
C          C       0.03380   0.89380   0.37000 
C          C       0.10620   0.03380   0.63000 
C          C       0.89380   0.96620   0.63000 
C          C       0.53380   0.10620   0.38000 
C          C       0.46620   0.89380   0.38000 
C          C       0.39380   0.03380   0.12000 
C          C       0.60620   0.96620   0.12000 
C          C       0.46620   0.60620   0.87000 
C          C       0.53380   0.39380   0.87000 
C          C       0.60620   0.53380   0.13000 
C          C       0.39380   0.46620   0.13000 
C          C       0.03380   0.60620   0.88000 
C          C       0.96620   0.39380   0.88000 
C          C       0.89380   0.53380   0.62000 
C          C       0.10620   0.46620   0.62000 
C          C       0.00430   0.10970   0.26400 
C          C       0.99570   0.89030   0.26400 
C          C       0.10970   0.99570   0.73600 
C          C       0.89030   0.00430   0.73600 
C          C       0.49570   0.10970   0.48600 
C          C       0.50430   0.89030   0.48600 
C          C       0.39030   0.99570   0.01400 
C          C       0.60970   0.00430   0.01400 
C          C       0.50430   0.60970   0.76400 
C          C       0.49570   0.39030   0.76400 
C          C       0.60970   0.49570   0.23600 
C          C       0.39030   0.50430   0.23600 
C          C       0.99570   0.60970   0.98600 
C          C       0.00430   0.39030   0.98600 
C          C       0.89030   0.49570   0.51400 
C          C       0.10970   0.50430   0.51400 
C          C       0.01560   0.07590   0.14300 
C          C       0.98440   0.92410   0.14300 
C          C       0.07590   0.98440   0.85700 
C          C       0.92410   0.01560   0.85700 
C          C       0.48440   0.07590   0.60700 
C          C       0.51560   0.92410   0.60700 
C          C       0.42410   0.98440   0.89300 
C          C       0.57590   0.01560   0.89300 
C          C       0.51560   0.57590   0.64300 
C          C       0.48440   0.42410   0.64300 
C          C       0.57590   0.48440   0.35700 
C          C       0.42410   0.51560   0.35700 
C          C       0.98440   0.57590   0.10700 
C          C       0.01560   0.42410   0.10700 
C          C       0.92410   0.48440   0.39300 
C          C       0.07590   0.51560   0.39300 
C          C       0.95680   0.13920   0.50600 
C          C       0.04320   0.86080   0.50600 
C          C       0.13920   0.04320   0.49400 
C          C       0.86080   0.95680   0.49400 
C          C       0.54320   0.13920   0.24400 
C          C       0.45680   0.86080   0.24400 
C          C       0.36080   0.04320   0.25600 
C          C       0.63920   0.95680   0.25600 
C          C       0.45680   0.63920   0.00600 
C          C       0.54320   0.36080   0.00600 
C          C       0.63920   0.54320   0.99400 
C          C       0.36080   0.45680   0.99400 
C          C       0.04320   0.63920   0.74400 
C          C       0.95680   0.36080   0.74400 
C          C       0.86080   0.54320   0.75600 
C          C       0.13920   0.45680   0.75600 
N          N       0.93160   0.13500   0.64800 
N          N       0.06840   0.86500   0.64800 
N          N       0.13500   0.06840   0.35200 
N          N       0.86500   0.93160   0.35200 
N          N       0.56840   0.13500   0.10200 
N          N       0.43160   0.86500   0.10200 
N          N       0.36500   0.06840   0.39800 
N          N       0.63500   0.93160   0.39800 
N          N       0.43160   0.63500   0.14800 
N          N       0.56840   0.36500   0.14800 
N          N       0.63500   0.56840   0.85200 
N          N       0.36500   0.43160   0.85200 
N          N       0.06840   0.63500   0.60200 
N          N       0.93160   0.36500   0.60200 
N          N       0.86500   0.56840   0.89800 
N          N       0.13500   0.43160   0.89800 
C          C       0.92570   0.16820   0.78800 
C          C       0.07430   0.83180   0.78800 
C          C       0.16820   0.07430   0.21200 
C          C       0.83180   0.92570   0.21200 
C          C       0.57430   0.16820   0.96200 
C          C       0.42570   0.83180   0.96200 
C          C       0.33180   0.07430   0.53800 
C          C       0.66820   0.92570   0.53800 
C          C       0.42570   0.66820   0.28800 
C          C       0.57430   0.33180   0.28800 
C          C       0.66820   0.57430   0.71200 
C          C       0.33180   0.42570   0.71200 
C          C       0.07430   0.66820   0.46200 
C          C       0.92570   0.33180   0.46200 
C          C       0.83180   0.57430   0.03800 
C          C       0.16820   0.42570   0.03800 
C          C       0.94900   0.20780   0.77400 
C          C       0.05100   0.79220   0.77400 
C          C       0.20780   0.05100   0.22600 
C          C       0.79220   0.94900   0.22600 
C          C       0.55100   0.20780   0.97600 
C          C       0.44900   0.79220   0.97600 
C          C       0.29220   0.05100   0.52400 
C          C       0.70780   0.94900   0.52400 
C          C       0.44900   0.70780   0.27400 
C          C       0.55100   0.29220   0.27400 
C          C       0.70780   0.55100   0.72600 
C          C       0.29220   0.44900   0.72600 
C          C       0.05100   0.70780   0.47600 
C          C       0.94900   0.29220   0.47600 
C          C       0.79220   0.55100   0.02400 
C          C       0.20780   0.44900   0.02400 
C          C       0.94340   0.24060   0.90600 
C          C       0.05660   0.75940   0.90600 
C          C       0.24060   0.05660   0.09400 
C          C       0.75940   0.94340   0.09400 
C          C       0.55660   0.24060   0.84400 
C          C       0.44340   0.75940   0.84400 
C          C       0.25940   0.05660   0.65600 
C          C       0.74060   0.94340   0.65600 
C          C       0.44340   0.74060   0.40600 
C          C       0.55660   0.25940   0.40600 
C          C       0.74060   0.55660   0.59400 
C          C       0.25940   0.44340   0.59400 
C          C       0.05660   0.74060   0.34400 
C          C       0.94340   0.25940   0.34400 
C          C       0.75940   0.55660   0.15600 
C          C       0.24060   0.44340   0.15600 
C          C       0.91450   0.23370   0.05260 
C          C       0.08550   0.76630   0.05260 
C          C       0.23370   0.08550   0.94740 
C          C       0.76630   0.91450   0.94740 
C          C       0.58550   0.23370   0.69740 
C          C       0.41450   0.76630   0.69740 
C          C       0.26630   0.08550   0.80260 
C          C       0.73370   0.91450   0.80260 
C          C       0.41450   0.73370   0.55260 
C          C       0.58550   0.26630   0.55260 
C          C       0.73370   0.58550   0.44740 
C          C       0.26630   0.41450   0.44740 
C          C       0.08550   0.73370   0.19740 
C          C       0.91450   0.26630   0.19740 
C          C       0.76630   0.58550   0.30260 
C          C       0.23370   0.41450   0.30260 
C          C       0.89130   0.19400   0.06600 
C          C       0.10870   0.80600   0.06600 
C          C       0.19400   0.10870   0.93400 
C          C       0.80600   0.89130   0.93400 
C          C       0.60870   0.19400   0.68400 
C          C       0.39130   0.80600   0.68400 
C          C       0.30600   0.10870   0.81600 
C          C       0.69400   0.89130   0.81600 
C          C       0.39130   0.69400   0.56600 
C          C       0.60870   0.30600   0.56600 
C          C       0.69400   0.60870   0.43400 
C          C       0.30600   0.39130   0.43400 
C          C       0.10870   0.69400   0.18400 
C          C       0.89130   0.30600   0.18400 
C          C       0.80600   0.60870   0.31600 
C          C       0.19400   0.39130   0.31600 
C          C       0.89690   0.16130   0.93400 
C          C       0.10310   0.83870   0.93400 
C          C       0.16130   0.10310   0.06600 
C          C       0.83870   0.89690   0.06600 
C          C       0.60310   0.16130   0.81600 
C          C       0.39690   0.83870   0.81600 
C          C       0.33870   0.10310   0.68400 
C          C       0.66130   0.89690   0.68400 
C          C       0.39690   0.66130   0.43400 
C          C       0.60310   0.33870   0.43400 
C          C       0.66130   0.60310   0.56600 
C          C       0.33870   0.39690   0.56600 
C          C       0.10310   0.66130   0.31600 
C          C       0.89690   0.33870   0.31600 
C          C       0.83870   0.60310   0.18400 
C          C       0.16130   0.39690   0.18400 
O          O       0.87407   0.12451   0.94312 
O          O       0.12593   0.87549   0.94312 
O          O       0.12451   0.12593   0.05688 
O          O       0.87549   0.87407   0.05688 
O          O       0.62593   0.12451   0.80688 
O          O       0.37407   0.87549   0.80688 
O          O       0.37549   0.12593   0.69312 
O          O       0.62451   0.87407   0.69312 
O          O       0.37407   0.62451   0.44312 
O          O       0.62593   0.37549   0.44312 
O          O       0.62451   0.62593   0.55688 
O          O       0.37549   0.37407   0.55688 
O          O       0.12593   0.62451   0.30688 
O          O       0.87407   0.37549   0.30688 
O          O       0.87549   0.62593   0.19312 
O          O       0.12451   0.37407   0.19312 
H          H       0.92860   0.00452   0.22170 
H          H       0.07140   0.99548   0.22170 
H          H       0.00452   0.07140   0.77830 
H          H       0.99548   0.92860   0.77830 
H          H       0.57140   0.00452   0.52830 
H          H       0.42860   0.99548   0.52830 
H          H       0.49548   0.07140   0.97170 
H          H       0.50452   0.92860   0.97170 
H          H       0.42860   0.50452   0.72170 
H          H       0.57140   0.49548   0.72170 
H          H       0.50452   0.57140   0.27830 
H          H       0.49548   0.42860   0.27830 
H          H       0.07140   0.50452   0.02830 
H          H       0.92860   0.49548   0.02830 
H          H       0.99548   0.57140   0.47170 
H          H       0.00452   0.42860   0.47170 
H          H       0.90800   0.06606   0.44193 
H          H       0.09200   0.93394   0.44193 
H          H       0.06606   0.09200   0.55807 
H          H       0.93394   0.90800   0.55807 
H          H       0.59200   0.06606   0.30807 
H          H       0.40800   0.93394   0.30807 
H          H       0.43394   0.09200   0.19193 
H          H       0.56606   0.90800   0.19193 
H          H       0.40800   0.56606   0.94193 
H          H       0.59200   0.43394   0.94193 
H          H       0.56606   0.59200   0.05807 
H          H       0.43394   0.40800   0.05807 
H          H       0.09200   0.56606   0.80807 
H          H       0.90800   0.43394   0.80807 
H          H       0.93394   0.59200   0.69193 
H          H       0.06606   0.40800   0.69193 
H          H       0.02630   0.14028   0.27623 
H          H       0.97370   0.85972   0.27623 
H          H       0.14028   0.97370   0.72377 
H          H       0.85972   0.02630   0.72377 
H          H       0.47370   0.14028   0.47377 
H          H       0.52630   0.85972   0.47377 
H          H       0.35972   0.97370   0.02623 
H          H       0.64028   0.02630   0.02623 
H          H       0.52630   0.64028   0.77623 
H          H       0.47370   0.35972   0.77623 
H          H       0.64028   0.47370   0.22377 
H          H       0.35972   0.52630   0.22377 
H          H       0.97370   0.64028   0.97377 
H          H       0.02630   0.35972   0.97377 
H          H       0.85972   0.47370   0.52623 
H          H       0.14028   0.52630   0.52623 
H          H       0.04689   0.07873   0.05599 
H          H       0.95311   0.92127   0.05599 
H          H       0.07873   0.95311   0.94401 
H          H       0.92127   0.04689   0.94401 
H          H       0.45311   0.07873   0.69401 
H          H       0.54689   0.92127   0.69401 
H          H       0.42127   0.95311   0.80599 
H          H       0.57873   0.04689   0.80599 
H          H       0.54689   0.57873   0.55599 
H          H       0.45311   0.42127   0.55599 
H          H       0.57873   0.45311   0.44401 
H          H       0.42127   0.54689   0.44401 
H          H       0.95311   0.57873   0.19401 
H          H       0.04689   0.42127   0.19401 
H          H       0.92127   0.45311   0.30599 
H          H       0.07873   0.54689   0.30599 
H          H       0.97234   0.17353   0.49466 
H          H       0.02766   0.82647   0.49466 
H          H       0.17353   0.02766   0.50534 
H          H       0.82647   0.97234   0.50534 
H          H       0.52766   0.17353   0.25534 
H          H       0.47234   0.82647   0.25534 
H          H       0.32647   0.02766   0.24466 
H          H       0.67353   0.97234   0.24466 
H          H       0.47234   0.67353   0.99466 
H          H       0.52766   0.32647   0.99466 
H          H       0.67353   0.52766   0.00534 
H          H       0.32647   0.47234   0.00534 
H          H       0.02766   0.67353   0.75534 
H          H       0.97234   0.32647   0.75534 
H          H       0.82647   0.52766   0.74466 
H          H       0.17353   0.47234   0.74466 
H          H       0.97270   0.21337   0.65426 
H          H       0.02730   0.78663   0.65426 
H          H       0.21337   0.02730   0.34574 
H          H       0.78663   0.97270   0.34574 
H          H       0.52730   0.21337   0.09574 
H          H       0.47270   0.78663   0.09574 
H          H       0.28663   0.02730   0.40426 
H          H       0.71337   0.97270   0.40426 
H          H       0.47270   0.71337   0.15426 
H          H       0.52730   0.28663   0.15426 
H          H       0.71337   0.52730   0.84574 
H          H       0.28663   0.47270   0.84574 
H          H       0.02730   0.71337   0.59574 
H          H       0.97270   0.28663   0.59574 
H          H       0.78663   0.52730   0.90426 
H          H       0.21337   0.47270   0.90426 
H          H       0.96244   0.27312   0.89433 
H          H       0.03756   0.72688   0.89433 
H          H       0.27312   0.03756   0.10567 
H          H       0.72688   0.96244   0.10567 
H          H       0.53756   0.27312   0.85567 
H          H       0.46244   0.72688   0.85567 
H          H       0.22688   0.03756   0.64433 
H          H       0.77312   0.96244   0.64433 
H          H       0.46244   0.77312   0.39433 
H          H       0.53756   0.22688   0.39433 
H          H       0.77312   0.53756   0.60567 
H          H       0.22688   0.46244   0.60567 
H          H       0.03756   0.77312   0.35567 
H          H       0.96244   0.22688   0.35567 
H          H       0.72688   0.53756   0.14433 
H          H       0.27312   0.46244   0.14433 
H          H       0.86761   0.18826   0.18564 
H          H       0.13239   0.81174   0.18564 
H          H       0.18826   0.13239   0.81436 
H          H       0.81174   0.86761   0.81436 
H          H       0.63239   0.18826   0.56436 
H          H       0.36761   0.81174   0.56436 
H          H       0.31174   0.13239   0.93564 
H          H       0.68826   0.86761   0.93564 
H          H       0.36761   0.68826   0.68564 
H          H       0.63239   0.31174   0.68564 
H          H       0.68826   0.63239   0.31436 
H          H       0.31174   0.36761   0.31436 
H          H       0.13239   0.68826   0.06436 
H          H       0.86761   0.31174   0.06436 
H          H       0.81174   0.63239   0.43564 
H          H       0.18826   0.36761   0.43564 
H          H       0.84225   0.13085   0.01506 
H          H       0.15775   0.86915   0.01506 
H          H       0.13085   0.15775   0.98494 
H          H       0.86915   0.84225   0.98494 
H          H       0.65775   0.13085   0.73494 
H          H       0.34225   0.86915   0.73494 
H          H       0.36915   0.15775   0.76506 
H          H       0.63085   0.84225   0.76506 
H          H       0.34225   0.63085   0.51506 
H          H       0.65775   0.36915   0.51506 
H          H       0.63085   0.65775   0.48494 
H          H       0.36915   0.34225   0.48494 
H          H       0.15775   0.63085   0.23494 
H          H       0.84225   0.36915   0.23494 
H          H       0.86915   0.65775   0.26506 
H          H       0.13085   0.34225   0.26506 
C          C       0.00000   0.00000   0.00000 
C          C       0.50000   0.00000   0.75000 
C          C       0.50000   0.50000   0.50000 
C          C       0.00000   0.50000   0.25000 
