data_crystal

_cell_length_a    30.68200
_cell_length_b    30.68200
_cell_length_c    7.54300
_cell_angle_alpha 90.00000
_cell_angle_beta  90.00000
_cell_angle_gamma 90.00000

_space_group_name_Hall 'P 1'
_space_group_name_H-M_alt  'P 1'

loop_
_symmetry_equiv_pos_as_xyz
'x,y,z' 

loop_
_atom_site_label
_atom_site_type_symbol
_atom_site_fract_x
_atom_site_fract_y
_atom_site_fract_z
C          C       0.98870   0.03860   0.12810 
C          C       0.95060   0.03510   0.23400 
C          C       0.93930   0.06890   0.35500 
C          C       0.96620   0.10620   0.37000 
C          C       0.00430   0.10970   0.26400 
C          C       0.01560   0.07590   0.14300 
C          C       0.95680   0.13920   0.50600 
N          N       0.93160   0.13500   0.64800 
C          C       0.92570   0.16820   0.78800 
C          C       0.94900   0.20780   0.77400 
C          C       0.94340   0.24060   0.90600 
C          C       0.91450   0.23370   0.05260 
C          C       0.89130   0.19400   0.06600 
C          C       0.89690   0.16130   0.93400 
O          O       0.86861   0.12765   0.96085 
H          H       0.93116   0.00801   0.22782 
H          H       0.91195   0.06588   0.43164 
H          H       0.02630   0.13365   0.28820 
H          H       0.04474   0.07900   0.07907 
H          H       0.97401   0.16676   0.48596 
H          H       0.97119   0.21426   0.67894 
H          H       0.96146   0.26824   0.89884 
H          H       0.87116   0.18895   0.17199 
C          C       0.36433   0.32488   0.54911 
C          C       0.38683   0.29505   0.42807 
O          O       0.33304   0.31036   0.63768 
H          H       0.37147   0.29895   0.29871 
H          H       0.38064   0.26168   0.47113 
C          C       0.43642   0.30339   0.40861 
H          H       0.45074   0.27904   0.32121 
C          C       0.46070   0.30219   0.57441 
H          H       0.44189   0.33547   0.35032 
O          O       0.44596   0.29276   0.72367 
O          O       0.50201   0.31493   0.57400 
H          H       0.51684   0.31440   0.68749 
C          C       0.48870   0.53860   0.62810 
C          C       0.45060   0.53510   0.73400 
C          C       0.43930   0.56890   0.85500 
C          C       0.46620   0.60620   0.87000 
C          C       0.50430   0.60970   0.76400 
C          C       0.51560   0.57590   0.64300 
C          C       0.45680   0.63920   0.00600 
N          N       0.43160   0.63500   0.14800 
C          C       0.42570   0.66820   0.28800 
C          C       0.44900   0.70780   0.27400 
C          C       0.44340   0.74060   0.40600 
C          C       0.41450   0.73370   0.55260 
C          C       0.39130   0.69400   0.56600 
C          C       0.39690   0.66130   0.43400 
O          O       0.36861   0.62765   0.46085 
H          H       0.43116   0.50801   0.72782 
H          H       0.41195   0.56588   0.93164 
H          H       0.52630   0.63365   0.78820 
H          H       0.54474   0.57900   0.57907 
H          H       0.47401   0.66676   0.98596 
H          H       0.47119   0.71426   0.17894 
H          H       0.46146   0.76824   0.39884 
H          H       0.37116   0.68895   0.67199 
C          C       0.86433   0.82488   0.04911 
C          C       0.88683   0.79505   0.92807 
O          O       0.83304   0.81036   0.13768 
H          H       0.87147   0.79895   0.79871 
H          H       0.88064   0.76168   0.97113 
C          C       0.93642   0.80339   0.90861 
H          H       0.95074   0.77904   0.82121 
C          C       0.96070   0.80219   0.07441 
H          H       0.94189   0.83547   0.85032 
O          O       0.94596   0.79276   0.22367 
O          O       0.00201   0.81493   0.07400 
H          H       0.01684   0.81440   0.18749 
C          C       0.01130   0.96140   0.12810 
C          C       0.04940   0.96490   0.23400 
C          C       0.06070   0.93110   0.35500 
C          C       0.03380   0.89380   0.37000 
C          C       0.99570   0.89030   0.26400 
C          C       0.98440   0.92410   0.14300 
C          C       0.04320   0.86080   0.50600 
N          N       0.06840   0.86500   0.64800 
C          C       0.07430   0.83180   0.78800 
C          C       0.05100   0.79220   0.77400 
C          C       0.05660   0.75940   0.90600 
C          C       0.08550   0.76630   0.05260 
C          C       0.10870   0.80600   0.06600 
C          C       0.10310   0.83870   0.93400 
O          O       0.13139   0.87235   0.96085 
H          H       0.06884   0.99199   0.22782 
H          H       0.08805   0.93412   0.43164 
H          H       0.97370   0.86635   0.28820 
H          H       0.95526   0.92100   0.07907 
H          H       0.02599   0.83324   0.48596 
H          H       0.02881   0.78574   0.67894 
H          H       0.03854   0.73176   0.89884 
H          H       0.12884   0.81105   0.17199 
C          C       0.63567   0.67512   0.54911 
C          C       0.61317   0.70495   0.42807 
O          O       0.66696   0.68964   0.63768 
H          H       0.62853   0.70105   0.29871 
H          H       0.61936   0.73832   0.47113 
C          C       0.56358   0.69661   0.40861 
H          H       0.54926   0.72096   0.32121 
C          C       0.53930   0.69781   0.57441 
H          H       0.55811   0.66453   0.35032 
O          O       0.55404   0.70724   0.72367 
O          O       0.49799   0.68507   0.57400 
H          H       0.48316   0.68560   0.68749 
C          C       0.51130   0.46140   0.62810 
C          C       0.54940   0.46490   0.73400 
C          C       0.56070   0.43110   0.85500 
C          C       0.53380   0.39380   0.87000 
C          C       0.49570   0.39030   0.76400 
C          C       0.48440   0.42410   0.64300 
C          C       0.54320   0.36080   0.00600 
N          N       0.56840   0.36500   0.14800 
C          C       0.57430   0.33180   0.28800 
C          C       0.55100   0.29220   0.27400 
C          C       0.55660   0.25940   0.40600 
C          C       0.58550   0.26630   0.55260 
C          C       0.60870   0.30600   0.56600 
C          C       0.60310   0.33870   0.43400 
O          O       0.63139   0.37235   0.46085 
H          H       0.56884   0.49199   0.72782 
H          H       0.58805   0.43412   0.93164 
H          H       0.47370   0.36635   0.78820 
H          H       0.45526   0.42100   0.57907 
H          H       0.52599   0.33324   0.98596 
H          H       0.52881   0.28574   0.17894 
H          H       0.53854   0.23176   0.39884 
H          H       0.62884   0.31105   0.67199 
C          C       0.13567   0.17512   0.04911 
C          C       0.11317   0.20495   0.92807 
O          O       0.16696   0.18964   0.13768 
H          H       0.12853   0.20105   0.79871 
H          H       0.11936   0.23832   0.97113 
C          C       0.06358   0.19661   0.90861 
H          H       0.04926   0.22096   0.82121 
C          C       0.03930   0.19781   0.07441 
H          H       0.05811   0.16453   0.85032 
O          O       0.05404   0.20724   0.22367 
O          O       0.99799   0.18507   0.07400 
H          H       0.98316   0.18560   0.18749 
C          C       0.03860   0.01130   0.87190 
C          C       0.03510   0.04940   0.76600 
C          C       0.06890   0.06070   0.64500 
C          C       0.10620   0.03380   0.63000 
C          C       0.10970   0.99570   0.73600 
C          C       0.07590   0.98440   0.85700 
C          C       0.13920   0.04320   0.49400 
N          N       0.13500   0.06840   0.35200 
C          C       0.16820   0.07430   0.21200 
C          C       0.20780   0.05100   0.22600 
C          C       0.24060   0.05660   0.09400 
C          C       0.23370   0.08550   0.94740 
C          C       0.19400   0.10870   0.93400 
C          C       0.16130   0.10310   0.06600 
O          O       0.12765   0.13139   0.03915 
H          H       0.00801   0.06884   0.77218 
H          H       0.06588   0.08805   0.56836 
H          H       0.13365   0.97370   0.71180 
H          H       0.07900   0.95526   0.92093 
H          H       0.16676   0.02599   0.51404 
H          H       0.21426   0.02881   0.32106 
H          H       0.26824   0.03854   0.10116 
H          H       0.18895   0.12884   0.82801 
C          C       0.32488   0.63567   0.45089 
C          C       0.29505   0.61317   0.57193 
O          O       0.31036   0.66696   0.36232 
H          H       0.29895   0.62853   0.70129 
H          H       0.26168   0.61936   0.52887 
C          C       0.30339   0.56358   0.59139 
H          H       0.27904   0.54926   0.67879 
C          C       0.30219   0.53930   0.42559 
H          H       0.33547   0.55811   0.64968 
O          O       0.29276   0.55404   0.27633 
O          O       0.31493   0.49799   0.42600 
H          H       0.31440   0.48316   0.31251 
C          C       0.53860   0.51130   0.37190 
C          C       0.53510   0.54940   0.26600 
C          C       0.56890   0.56070   0.14500 
C          C       0.60620   0.53380   0.13000 
C          C       0.60970   0.49570   0.23600 
C          C       0.57590   0.48440   0.35700 
C          C       0.63920   0.54320   0.99400 
N          N       0.63500   0.56840   0.85200 
C          C       0.66820   0.57430   0.71200 
C          C       0.70780   0.55100   0.72600 
C          C       0.74060   0.55660   0.59400 
C          C       0.73370   0.58550   0.44740 
C          C       0.69400   0.60870   0.43400 
C          C       0.66130   0.60310   0.56600 
O          O       0.62765   0.63139   0.53915 
H          H       0.50801   0.56884   0.27218 
H          H       0.56588   0.58805   0.06836 
H          H       0.63365   0.47370   0.21180 
H          H       0.57900   0.45526   0.42093 
H          H       0.66676   0.52599   0.01404 
H          H       0.71426   0.52881   0.82106 
H          H       0.76824   0.53854   0.60116 
H          H       0.68895   0.62884   0.32801 
C          C       0.82488   0.13567   0.95089 
C          C       0.79505   0.11317   0.07193 
O          O       0.81036   0.16696   0.86232 
H          H       0.79895   0.12853   0.20129 
H          H       0.76168   0.11936   0.02887 
C          C       0.80339   0.06358   0.09139 
H          H       0.77904   0.04926   0.17879 
C          C       0.80219   0.03930   0.92559 
H          H       0.83547   0.05811   0.14968 
O          O       0.79276   0.05404   0.77633 
O          O       0.81493   0.99799   0.92600 
H          H       0.81440   0.98316   0.81251 
C          C       0.96140   0.98870   0.87190 
C          C       0.96490   0.95060   0.76600 
C          C       0.93110   0.93930   0.64500 
C          C       0.89380   0.96620   0.63000 
C          C       0.89030   0.00430   0.73600 
C          C       0.92410   0.01560   0.85700 
C          C       0.86080   0.95680   0.49400 
N          N       0.86500   0.93160   0.35200 
C          C       0.83180   0.92570   0.21200 
C          C       0.79220   0.94900   0.22600 
C          C       0.75940   0.94340   0.09400 
C          C       0.76630   0.91450   0.94740 
C          C       0.80600   0.89130   0.93400 
C          C       0.83870   0.89690   0.06600 
O          O       0.87235   0.86861   0.03915 
H          H       0.99199   0.93116   0.77218 
H          H       0.93412   0.91195   0.56836 
H          H       0.86635   0.02630   0.71180 
H          H       0.92100   0.04474   0.92093 
H          H       0.83324   0.97401   0.51404 
H          H       0.78574   0.97119   0.32106 
H          H       0.73176   0.96146   0.10116 
H          H       0.81105   0.87116   0.82801 
C          C       0.67512   0.36433   0.45089 
C          C       0.70495   0.38683   0.57193 
O          O       0.68964   0.33304   0.36232 
H          H       0.70105   0.37147   0.70129 
H          H       0.73832   0.38064   0.52887 
C          C       0.69661   0.43642   0.59139 
H          H       0.72096   0.45074   0.67879 
C          C       0.69781   0.46070   0.42559 
H          H       0.66453   0.44189   0.64968 
O          O       0.70724   0.44596   0.27633 
O          O       0.68507   0.50201   0.42600 
H          H       0.68560   0.51684   0.31251 
C          C       0.46140   0.48870   0.37190 
C          C       0.46490   0.45060   0.26600 
C          C       0.43110   0.43930   0.14500 
C          C       0.39380   0.46620   0.13000 
C          C       0.39030   0.50430   0.23600 
C          C       0.42410   0.51560   0.35700 
C          C       0.36080   0.45680   0.99400 
N          N       0.36500   0.43160   0.85200 
C          C       0.33180   0.42570   0.71200 
C          C       0.29220   0.44900   0.72600 
C          C       0.25940   0.44340   0.59400 
C          C       0.26630   0.41450   0.44740 
C          C       0.30600   0.39130   0.43400 
C          C       0.33870   0.39690   0.56600 
O          O       0.37235   0.36861   0.53915 
H          H       0.49199   0.43116   0.27218 
H          H       0.43412   0.41195   0.06836 
H          H       0.36635   0.52630   0.21180 
H          H       0.42100   0.54474   0.42093 
H          H       0.33324   0.47401   0.01404 
H          H       0.28574   0.47119   0.82106 
H          H       0.23176   0.46146   0.60116 
H          H       0.31105   0.37116   0.32801 
C          C       0.17512   0.86433   0.95089 
C          C       0.20495   0.88683   0.07193 
O          O       0.18964   0.83304   0.86232 
H          H       0.20105   0.87147   0.20129 
H          H       0.23832   0.88064   0.02887 
C          C       0.19661   0.93642   0.09139 
H          H       0.22096   0.95074   0.17879 
C          C       0.19781   0.96070   0.92559 
H          H       0.16453   0.94189   0.14968 
O          O       0.20724   0.94596   0.77633 
O          O       0.18507   0.00201   0.92600 
H          H       0.18560   0.01684   0.81251 
C          C       0.51130   0.03860   0.62190 
C          C       0.54940   0.03510   0.51600 
C          C       0.56070   0.06890   0.39500 
C          C       0.53380   0.10620   0.38000 
C          C       0.49570   0.10970   0.48600 
C          C       0.48440   0.07590   0.60700 
C          C       0.54320   0.13920   0.24400 
N          N       0.56840   0.13500   0.10200 
C          C       0.57430   0.16820   0.96200 
C          C       0.55100   0.20780   0.97600 
C          C       0.55660   0.24060   0.84400 
C          C       0.58550   0.23370   0.69740 
C          C       0.60870   0.19400   0.68400 
C          C       0.60310   0.16130   0.81600 
O          O       0.63139   0.12765   0.78915 
H          H       0.56884   0.00801   0.52218 
H          H       0.58805   0.06588   0.31836 
H          H       0.47370   0.13365   0.46180 
H          H       0.45526   0.07900   0.67093 
H          H       0.52599   0.16676   0.26404 
H          H       0.52881   0.21426   0.07106 
H          H       0.53854   0.26824   0.85116 
H          H       0.62884   0.18895   0.57801 
C          C       0.13567   0.32488   0.20089 
C          C       0.11317   0.29505   0.32193 
O          O       0.16696   0.31036   0.11232 
H          H       0.12853   0.29895   0.45129 
H          H       0.11936   0.26168   0.27887 
C          C       0.06358   0.30339   0.34139 
H          H       0.04926   0.27904   0.42879 
C          C       0.03930   0.30219   0.17559 
H          H       0.05811   0.33547   0.39968 
O          O       0.05404   0.29276   0.02633 
O          O       0.99799   0.31493   0.17600 
H          H       0.98316   0.31440   0.06251 
C          C       0.01130   0.53860   0.12190 
C          C       0.04940   0.53510   0.01600 
C          C       0.06070   0.56890   0.89500 
C          C       0.03380   0.60620   0.88000 
C          C       0.99570   0.60970   0.98600 
C          C       0.98440   0.57590   0.10700 
C          C       0.04320   0.63920   0.74400 
N          N       0.06840   0.63500   0.60200 
C          C       0.07430   0.66820   0.46200 
C          C       0.05100   0.70780   0.47600 
C          C       0.05660   0.74060   0.34400 
C          C       0.08550   0.73370   0.19740 
C          C       0.10870   0.69400   0.18400 
C          C       0.10310   0.66130   0.31600 
O          O       0.13139   0.62765   0.28915 
H          H       0.06884   0.50801   0.02218 
H          H       0.08805   0.56588   0.81836 
H          H       0.97370   0.63365   0.96180 
H          H       0.95526   0.57900   0.17093 
H          H       0.02599   0.66676   0.76404 
H          H       0.02881   0.71426   0.57106 
H          H       0.03854   0.76824   0.35116 
H          H       0.12884   0.68895   0.07801 
C          C       0.63567   0.82488   0.70089 
C          C       0.61317   0.79505   0.82193 
O          O       0.66696   0.81036   0.61232 
H          H       0.62853   0.79895   0.95129 
H          H       0.61936   0.76168   0.77887 
C          C       0.56358   0.80339   0.84139 
H          H       0.54926   0.77904   0.92879 
C          C       0.53930   0.80219   0.67559 
H          H       0.55811   0.83547   0.89968 
O          O       0.55404   0.79276   0.52633 
O          O       0.49799   0.81493   0.67600 
H          H       0.48316   0.81440   0.56251 
C          C       0.48870   0.96140   0.62190 
C          C       0.45060   0.96490   0.51600 
C          C       0.43930   0.93110   0.39500 
C          C       0.46620   0.89380   0.38000 
C          C       0.50430   0.89030   0.48600 
C          C       0.51560   0.92410   0.60700 
C          C       0.45680   0.86080   0.24400 
N          N       0.43160   0.86500   0.10200 
C          C       0.42570   0.83180   0.96200 
C          C       0.44900   0.79220   0.97600 
C          C       0.44340   0.75940   0.84400 
C          C       0.41450   0.76630   0.69740 
C          C       0.39130   0.80600   0.68400 
C          C       0.39690   0.83870   0.81600 
O          O       0.36861   0.87235   0.78915 
H          H       0.43116   0.99199   0.52218 
H          H       0.41195   0.93412   0.31836 
H          H       0.52630   0.86635   0.46180 
H          H       0.54474   0.92100   0.67093 
H          H       0.47401   0.83324   0.26404 
H          H       0.47119   0.78574   0.07106 
H          H       0.46146   0.73176   0.85116 
H          H       0.37116   0.81105   0.57801 
C          C       0.86433   0.67512   0.20089 
C          C       0.88683   0.70495   0.32193 
O          O       0.83304   0.68964   0.11232 
H          H       0.87147   0.70105   0.45129 
H          H       0.88064   0.73832   0.27887 
C          C       0.93642   0.69661   0.34139 
H          H       0.95074   0.72096   0.42879 
C          C       0.96070   0.69781   0.17559 
H          H       0.94189   0.66453   0.39968 
O          O       0.94596   0.70724   0.02633 
O          O       0.00201   0.68507   0.17600 
H          H       0.01684   0.68560   0.06251 
C          C       0.98870   0.46140   0.12190 
C          C       0.95060   0.46490   0.01600 
C          C       0.93930   0.43110   0.89500 
C          C       0.96620   0.39380   0.88000 
C          C       0.00430   0.39030   0.98600 
C          C       0.01560   0.42410   0.10700 
C          C       0.95680   0.36080   0.74400 
N          N       0.93160   0.36500   0.60200 
C          C       0.92570   0.33180   0.46200 
C          C       0.94900   0.29220   0.47600 
C          C       0.94340   0.25940   0.34400 
C          C       0.91450   0.26630   0.19740 
C          C       0.89130   0.30600   0.18400 
C          C       0.89690   0.33870   0.31600 
O          O       0.86861   0.37235   0.28915 
H          H       0.93116   0.49199   0.02218 
H          H       0.91195   0.43412   0.81836 
H          H       0.02630   0.36635   0.96180 
H          H       0.04474   0.42100   0.17093 
H          H       0.97401   0.33324   0.76404 
H          H       0.97119   0.28574   0.57106 
H          H       0.96146   0.23176   0.35116 
H          H       0.87116   0.31105   0.07801 
C          C       0.36433   0.17512   0.70089 
C          C       0.38683   0.20495   0.82193 
O          O       0.33304   0.18964   0.61232 
H          H       0.37147   0.20105   0.95129 
H          H       0.38064   0.23832   0.77887 
C          C       0.43642   0.19661   0.84139 
H          H       0.45074   0.22096   0.92879 
C          C       0.46070   0.19781   0.67559 
H          H       0.44189   0.16453   0.89968 
O          O       0.44596   0.20724   0.52633 
O          O       0.50201   0.18507   0.67600 
H          H       0.51684   0.18560   0.56251 
C          C       0.46140   0.01130   0.87810 
C          C       0.46490   0.04940   0.98400 
C          C       0.43110   0.06070   0.10500 
C          C       0.39380   0.03380   0.12000 
C          C       0.39030   0.99570   0.01400 
C          C       0.42410   0.98440   0.89300 
C          C       0.36080   0.04320   0.25600 
N          N       0.36500   0.06840   0.39800 
C          C       0.33180   0.07430   0.53800 
C          C       0.29220   0.05100   0.52400 
C          C       0.25940   0.05660   0.65600 
C          C       0.26630   0.08550   0.80260 
C          C       0.30600   0.10870   0.81600 
C          C       0.33870   0.10310   0.68400 
O          O       0.37235   0.13139   0.71085 
H          H       0.49199   0.06884   0.97782 
H          H       0.43412   0.08805   0.18164 
H          H       0.36635   0.97370   0.03820 
H          H       0.42100   0.95526   0.82907 
H          H       0.33324   0.02599   0.23596 
H          H       0.28574   0.02881   0.42894 
H          H       0.23176   0.03854   0.64884 
H          H       0.31105   0.12884   0.92199 
C          C       0.17512   0.63567   0.29911 
C          C       0.20495   0.61317   0.17807 
O          O       0.18964   0.66696   0.38768 
H          H       0.20105   0.62853   0.04871 
H          H       0.23832   0.61936   0.22113 
C          C       0.19661   0.56358   0.15861 
H          H       0.22096   0.54926   0.07121 
C          C       0.19781   0.53930   0.32441 
H          H       0.16453   0.55811   0.10032 
O          O       0.20724   0.55404   0.47367 
O          O       0.18507   0.49799   0.32400 
H          H       0.18560   0.48316   0.43749 
C          C       0.96140   0.51130   0.37810 
C          C       0.96490   0.54940   0.48400 
C          C       0.93110   0.56070   0.60500 
C          C       0.89380   0.53380   0.62000 
C          C       0.89030   0.49570   0.51400 
C          C       0.92410   0.48440   0.39300 
C          C       0.86080   0.54320   0.75600 
N          N       0.86500   0.56840   0.89800 
C          C       0.83180   0.57430   0.03800 
C          C       0.79220   0.55100   0.02400 
C          C       0.75940   0.55660   0.15600 
C          C       0.76630   0.58550   0.30260 
C          C       0.80600   0.60870   0.31600 
C          C       0.83870   0.60310   0.18400 
O          O       0.87235   0.63139   0.21085 
H          H       0.99199   0.56884   0.47782 
H          H       0.93412   0.58805   0.68164 
H          H       0.86635   0.47370   0.53820 
H          H       0.92100   0.45526   0.32907 
H          H       0.83324   0.52599   0.73596 
H          H       0.78574   0.52881   0.92894 
H          H       0.73176   0.53854   0.14884 
H          H       0.81105   0.62884   0.42199 
C          C       0.67512   0.13567   0.79911 
C          C       0.70495   0.11317   0.67807 
O          O       0.68964   0.16696   0.88768 
H          H       0.70105   0.12853   0.54871 
H          H       0.73832   0.11936   0.72113 
C          C       0.69661   0.06358   0.65861 
H          H       0.72096   0.04926   0.57121 
C          C       0.69781   0.03930   0.82441 
H          H       0.66453   0.05811   0.60032 
O          O       0.70724   0.05404   0.97367 
O          O       0.68507   0.99799   0.82400 
H          H       0.68560   0.98316   0.93749 
C          C       0.53860   0.98870   0.87810 
C          C       0.53510   0.95060   0.98400 
C          C       0.56890   0.93930   0.10500 
C          C       0.60620   0.96620   0.12000 
C          C       0.60970   0.00430   0.01400 
C          C       0.57590   0.01560   0.89300 
C          C       0.63920   0.95680   0.25600 
N          N       0.63500   0.93160   0.39800 
C          C       0.66820   0.92570   0.53800 
C          C       0.70780   0.94900   0.52400 
C          C       0.74060   0.94340   0.65600 
C          C       0.73370   0.91450   0.80260 
C          C       0.69400   0.89130   0.81600 
C          C       0.66130   0.89690   0.68400 
O          O       0.62765   0.86861   0.71085 
H          H       0.50801   0.93116   0.97782 
H          H       0.56588   0.91195   0.18164 
H          H       0.63365   0.02630   0.03820 
H          H       0.57900   0.04474   0.82907 
H          H       0.66676   0.97401   0.23596 
H          H       0.71426   0.97119   0.42894 
H          H       0.76824   0.96146   0.64884 
H          H       0.68895   0.87116   0.92199 
C          C       0.82488   0.36433   0.29911 
C          C       0.79505   0.38683   0.17807 
O          O       0.81036   0.33304   0.38768 
H          H       0.79895   0.37147   0.04871 
H          H       0.76168   0.38064   0.22113 
C          C       0.80339   0.43642   0.15861 
H          H       0.77904   0.45074   0.07121 
C          C       0.80219   0.46070   0.32441 
H          H       0.83547   0.44189   0.10032 
O          O       0.79276   0.44596   0.47367 
O          O       0.81493   0.50201   0.32400 
H          H       0.81440   0.51684   0.43749 
C          C       0.03860   0.48870   0.37810 
C          C       0.03510   0.45060   0.48400 
C          C       0.06890   0.43930   0.60500 
C          C       0.10620   0.46620   0.62000 
C          C       0.10970   0.50430   0.51400 
C          C       0.07590   0.51560   0.39300 
C          C       0.13920   0.45680   0.75600 
N          N       0.13500   0.43160   0.89800 
C          C       0.16820   0.42570   0.03800 
C          C       0.20780   0.44900   0.02400 
C          C       0.24060   0.44340   0.15600 
C          C       0.23370   0.41450   0.30260 
C          C       0.19400   0.39130   0.31600 
C          C       0.16130   0.39690   0.18400 
O          O       0.12765   0.36861   0.21085 
H          H       0.00801   0.43116   0.47782 
H          H       0.06588   0.41195   0.68164 
H          H       0.13365   0.52630   0.53820 
H          H       0.07900   0.54474   0.32907 
H          H       0.16676   0.47401   0.73596 
H          H       0.21426   0.47119   0.92894 
H          H       0.26824   0.46146   0.14884 
H          H       0.18895   0.37116   0.42199 
C          C       0.32488   0.86433   0.79911 
C          C       0.29505   0.88683   0.67807 
O          O       0.31036   0.83304   0.88768 
H          H       0.29895   0.87147   0.54871 
H          H       0.26168   0.88064   0.72113 
C          C       0.30339   0.93642   0.65861 
H          H       0.27904   0.95074   0.57121 
C          C       0.30219   0.96070   0.82441 
H          H       0.33547   0.94189   0.60032 
O          O       0.29276   0.94596   0.97367 
O          O       0.31493   0.00201   0.82400 
H          H       0.31440   0.01684   0.93749 
C          C       0.00000   0.00000   0.00000 
C          C       0.50000   0.50000   0.50000 
C          C       0.50000   0.00000   0.75000 
C          C       0.00000   0.50000   0.25000 
