data_crystal

_cell_length_a    37.04960
_cell_length_b    37.04960
_cell_length_c    7.73502
_cell_angle_alpha 90.00000
_cell_angle_beta  90.00000
_cell_angle_gamma 120.00000

_space_group_name_Hall 'P 1'
_space_group_name_H-M_alt  'P 1'

loop_
_symmetry_equiv_pos_as_xyz
'x,y,z' 

loop_
_atom_site_label
_atom_site_type_symbol
_atom_site_fract_x
_atom_site_fract_y
_atom_site_fract_z
O          O       0.05515   0.58569   0.21151 
O          O       0.41431   0.46946   0.21151 
O          O       0.53054   0.94485   0.21151 
O          O       0.94485   0.41431   0.21151 
O          O       0.58569   0.53054   0.21151 
O          O       0.46946   0.05515   0.21151 
C          C       0.04162   0.61105   0.13008 
C          C       0.38895   0.43057   0.13008 
C          C       0.56943   0.95838   0.13008 
C          C       0.95838   0.38895   0.13008 
C          C       0.61105   0.56943   0.13008 
C          C       0.43057   0.04162   0.13008 
C          C       0.54232   0.01539   0.22438 
C          C       0.98461   0.52693   0.22438 
C          C       0.47307   0.45768   0.22438 
C          C       0.45768   0.98461   0.22438 
C          C       0.01539   0.47307   0.22438 
C          C       0.52693   0.54232   0.22438 
C          C       0.52716   0.04278   0.22778 
C          C       0.95722   0.48438   0.22778 
C          C       0.51562   0.47284   0.22778 
C          C       0.47284   0.95722   0.22778 
C          C       0.04278   0.51562   0.22778 
C          C       0.48438   0.52716   0.22778 
C          C       0.48437   0.02741   0.22089 
C          C       0.97259   0.45696   0.22089 
C          C       0.54304   0.51563   0.22089 
C          C       0.51563   0.97259   0.22089 
C          C       0.02741   0.54304   0.22089 
C          C       0.45696   0.48437   0.22089 
C          C       0.55724   0.08730   0.23342 
C          C       0.91270   0.46994   0.23342 
C          C       0.53006   0.44276   0.23342 
C          C       0.44276   0.91270   0.23342 
C          C       0.08730   0.53006   0.23342 
C          C       0.46994   0.55724   0.23342 
C          C       0.68941   0.37617   0.31744 
C          C       0.62383   0.31324   0.31744 
C          C       0.68676   0.31059   0.31744 
C          C       0.31059   0.62383   0.31744 
C          C       0.37617   0.68676   0.31744 
C          C       0.31324   0.68941   0.31744 
C          C       0.64630   0.35639   0.31689 
C          C       0.64361   0.28991   0.31689 
C          C       0.71009   0.35370   0.31689 
C          C       0.35370   0.64361   0.31689 
C          C       0.35639   0.71009   0.31689 
C          C       0.28991   0.64630   0.31689 
C          C       0.75591   0.37517   0.31122 
C          C       0.62483   0.38074   0.31122 
C          C       0.61926   0.24409   0.31122 
C          C       0.24409   0.62483   0.31122 
C          C       0.37517   0.61926   0.31122 
C          C       0.38074   0.75591   0.31122 
C          C       0.64230   0.41983   0.38924 
C          C       0.58017   0.22247   0.38924 
C          C       0.77753   0.35770   0.38924 
C          C       0.35770   0.58017   0.38924 
C          C       0.41983   0.77753   0.38924 
C          C       0.22247   0.64230   0.38924 
C          C       0.62271   0.44304   0.37839 
C          C       0.55696   0.17967   0.37839 
C          C       0.82033   0.37729   0.37839 
C          C       0.37729   0.55696   0.37839 
C          C       0.44304   0.82033   0.37839 
C          C       0.17967   0.62271   0.37839 
C          C       0.58501   0.42765   0.29346 
C          C       0.57235   0.15736   0.29346 
C          C       0.84264   0.41499   0.29346 
C          C       0.41499   0.57235   0.29346 
C          C       0.42765   0.84264   0.29346 
C          C       0.15736   0.58501   0.29346 
C          C       0.56711   0.38852   0.21643 
C          C       0.61148   0.17859   0.21643 
C          C       0.82141   0.43289   0.21643 
C          C       0.43289   0.61148   0.21643 
C          C       0.38852   0.82141   0.21643 
C          C       0.17859   0.56711   0.21643 
C          C       0.58692   0.36549   0.22458 
C          C       0.63451   0.22143   0.22458 
C          C       0.77857   0.41308   0.22458 
C          C       0.41308   0.63451   0.22458 
C          C       0.36549   0.77857   0.22458 
C          C       0.22143   0.58692   0.22458 
N          N       0.54649   0.11362   0.28246 
N          N       0.88638   0.43287   0.28246 
N          N       0.56713   0.45351   0.28246 
N          N       0.45351   0.88638   0.28246 
N          N       0.11362   0.56713   0.28246 
N          N       0.43287   0.54649   0.28246 
H          H       0.02036   0.61541   0.21584 
H          H       0.38459   0.40495   0.21584 
H          H       0.59505   0.97964   0.21584 
H          H       0.97964   0.38459   0.21584 
H          H       0.61541   0.59505   0.21584 
H          H       0.40495   0.02036   0.21584 
H          H       0.02665   0.59780   0.00345 
H          H       0.40220   0.42885   0.00345 
H          H       0.57115   0.97335   0.00345 
H          H       0.97335   0.40220   0.00345 
H          H       0.59780   0.57115   0.00345 
H          H       0.42885   0.02665   0.00345 
H          H       0.06873   0.64168   0.10432 
H          H       0.35832   0.42705   0.10432 
H          H       0.57295   0.93127   0.10432 
H          H       0.93127   0.35832   0.10432 
H          H       0.64168   0.57295   0.10432 
H          H       0.42705   0.06873   0.10432 
H          H       0.57513   0.02770   0.22690 
H          H       0.97230   0.54743   0.22690 
H          H       0.45257   0.42487   0.22690 
H          H       0.42487   0.97230   0.22690 
H          H       0.02770   0.45257   0.22690 
H          H       0.54743   0.57513   0.22690 
H          H       0.58896   0.09716   0.20405 
H          H       0.90284   0.49180   0.20405 
H          H       0.50820   0.41104   0.20405 
H          H       0.41104   0.90284   0.20405 
H          H       0.09716   0.50820   0.20405 
H          H       0.49180   0.58896   0.20405 
H          H       0.70701   0.40929   0.31651 
H          H       0.59071   0.29772   0.31651 
H          H       0.70228   0.29299   0.31651 
H          H       0.29299   0.59071   0.31651 
H          H       0.40929   0.70228   0.31651 
H          H       0.29772   0.70701   0.31651 
H          H       0.67065   0.43227   0.46217 
H          H       0.56773   0.23838   0.46217 
H          H       0.76162   0.32935   0.46217 
H          H       0.32935   0.56773   0.46217 
H          H       0.43227   0.76162   0.46217 
H          H       0.23838   0.67065   0.46217 
H          H       0.63648   0.47306   0.43880 
H          H       0.52694   0.16342   0.43880 
H          H       0.83658   0.36352   0.43880 
H          H       0.36352   0.52694   0.43880 
H          H       0.47306   0.83658   0.43880 
H          H       0.16342   0.63648   0.43880 
H          H       0.53885   0.37618   0.14347 
H          H       0.62382   0.16267   0.14347 
H          H       0.83733   0.46115   0.14347 
H          H       0.46115   0.62382   0.14347 
H          H       0.37618   0.83733   0.14347 
H          H       0.16267   0.53885   0.14347 
H          H       0.57318   0.33643   0.15637 
H          H       0.66357   0.23675   0.15637 
H          H       0.76325   0.42682   0.15637 
H          H       0.42682   0.66357   0.15637 
H          H       0.33643   0.76325   0.15637 
H          H       0.23675   0.57318   0.15637 
O          O       0.05515   0.58569   0.71151 
O          O       0.41431   0.46946   0.71151 
O          O       0.53054   0.94485   0.71151 
O          O       0.94485   0.41431   0.71151 
O          O       0.58569   0.53054   0.71151 
O          O       0.46946   0.05515   0.71151 
C          C       0.04162   0.61105   0.63008 
C          C       0.38895   0.43057   0.63008 
C          C       0.56943   0.95838   0.63008 
C          C       0.95838   0.38895   0.63008 
C          C       0.61105   0.56943   0.63008 
C          C       0.43057   0.04162   0.63008 
C          C       0.54232   0.01539   0.72438 
C          C       0.98461   0.52693   0.72438 
C          C       0.47307   0.45768   0.72438 
C          C       0.45768   0.98461   0.72438 
C          C       0.01539   0.47307   0.72438 
C          C       0.52693   0.54232   0.72438 
C          C       0.52716   0.04278   0.72779 
C          C       0.95722   0.48438   0.72779 
C          C       0.51562   0.47284   0.72779 
C          C       0.47284   0.95722   0.72779 
C          C       0.04278   0.51562   0.72779 
C          C       0.48438   0.52716   0.72779 
C          C       0.48437   0.02741   0.72089 
C          C       0.97259   0.45696   0.72089 
C          C       0.54304   0.51563   0.72089 
C          C       0.51563   0.97259   0.72089 
C          C       0.02741   0.54304   0.72089 
C          C       0.45696   0.48437   0.72089 
C          C       0.55724   0.08730   0.73343 
C          C       0.91270   0.46994   0.73343 
C          C       0.53006   0.44276   0.73343 
C          C       0.44276   0.91270   0.73343 
C          C       0.08730   0.53006   0.73343 
C          C       0.46994   0.55724   0.73343 
C          C       0.68941   0.37617   0.81744 
C          C       0.62383   0.31324   0.81744 
C          C       0.68676   0.31059   0.81744 
C          C       0.31059   0.62383   0.81744 
C          C       0.37617   0.68676   0.81744 
C          C       0.31324   0.68941   0.81744 
C          C       0.64630   0.35639   0.81689 
C          C       0.64361   0.28991   0.81689 
C          C       0.71009   0.35370   0.81689 
C          C       0.35370   0.64361   0.81689 
C          C       0.35639   0.71009   0.81689 
C          C       0.28991   0.64630   0.81689 
C          C       0.75591   0.37517   0.81122 
C          C       0.62483   0.38074   0.81122 
C          C       0.61926   0.24409   0.81122 
C          C       0.24409   0.62483   0.81122 
C          C       0.37517   0.61926   0.81122 
C          C       0.38074   0.75591   0.81122 
C          C       0.64230   0.41983   0.88924 
C          C       0.58017   0.22247   0.88924 
C          C       0.77753   0.35770   0.88924 
C          C       0.35770   0.58017   0.88924 
C          C       0.41983   0.77753   0.88924 
C          C       0.22247   0.64230   0.88924 
C          C       0.62271   0.44304   0.87839 
C          C       0.55696   0.17967   0.87839 
C          C       0.82033   0.37729   0.87839 
C          C       0.37729   0.55696   0.87839 
C          C       0.44304   0.82033   0.87839 
C          C       0.17967   0.62271   0.87839 
C          C       0.58501   0.42765   0.79346 
C          C       0.57235   0.15736   0.79346 
C          C       0.84264   0.41499   0.79346 
C          C       0.41499   0.57235   0.79346 
C          C       0.42765   0.84264   0.79346 
C          C       0.15736   0.58501   0.79346 
C          C       0.56711   0.38852   0.71642 
C          C       0.61148   0.17859   0.71642 
C          C       0.82141   0.43289   0.71642 
C          C       0.43289   0.61148   0.71642 
C          C       0.38852   0.82141   0.71642 
C          C       0.17859   0.56711   0.71642 
C          C       0.58692   0.36549   0.72458 
C          C       0.63451   0.22143   0.72458 
C          C       0.77857   0.41308   0.72458 
C          C       0.41308   0.63451   0.72458 
C          C       0.36549   0.77857   0.72458 
C          C       0.22143   0.58692   0.72458 
N          N       0.54649   0.11362   0.78246 
N          N       0.88638   0.43287   0.78246 
N          N       0.56713   0.45351   0.78246 
N          N       0.45351   0.88638   0.78246 
N          N       0.11362   0.56713   0.78246 
N          N       0.43287   0.54649   0.78246 
H          H       0.02036   0.61541   0.71583 
H          H       0.38459   0.40495   0.71583 
H          H       0.59505   0.97964   0.71583 
H          H       0.97964   0.38459   0.71583 
H          H       0.61541   0.59505   0.71583 
H          H       0.40495   0.02036   0.71583 
H          H       0.02665   0.59780   0.50345 
H          H       0.40220   0.42885   0.50345 
H          H       0.57115   0.97335   0.50345 
H          H       0.97335   0.40220   0.50345 
H          H       0.59780   0.57115   0.50345 
H          H       0.42885   0.02665   0.50345 
H          H       0.06873   0.64168   0.60432 
H          H       0.35832   0.42705   0.60432 
H          H       0.57295   0.93127   0.60432 
H          H       0.93127   0.35832   0.60432 
H          H       0.64168   0.57295   0.60432 
H          H       0.42705   0.06873   0.60432 
H          H       0.57513   0.02770   0.72690 
H          H       0.97230   0.54743   0.72690 
H          H       0.45257   0.42487   0.72690 
H          H       0.42487   0.97230   0.72690 
H          H       0.02770   0.45257   0.72690 
H          H       0.54743   0.57513   0.72690 
H          H       0.58896   0.09716   0.70405 
H          H       0.90284   0.49180   0.70405 
H          H       0.50820   0.41104   0.70405 
H          H       0.41104   0.90284   0.70405 
H          H       0.09716   0.50820   0.70405 
H          H       0.49180   0.58896   0.70405 
H          H       0.70701   0.40929   0.81651 
H          H       0.59071   0.29772   0.81651 
H          H       0.70228   0.29299   0.81651 
H          H       0.29299   0.59071   0.81651 
H          H       0.40929   0.70228   0.81651 
H          H       0.29772   0.70701   0.81651 
H          H       0.67065   0.43227   0.96217 
H          H       0.56773   0.23838   0.96217 
H          H       0.76162   0.32935   0.96217 
H          H       0.32935   0.56773   0.96217 
H          H       0.43227   0.76162   0.96217 
H          H       0.23838   0.67065   0.96217 
H          H       0.63648   0.47306   0.93880 
H          H       0.52694   0.16342   0.93880 
H          H       0.83658   0.36352   0.93880 
H          H       0.36352   0.52694   0.93880 
H          H       0.47306   0.83658   0.93880 
H          H       0.16342   0.63648   0.93880 
H          H       0.53885   0.37618   0.64347 
H          H       0.62382   0.16267   0.64347 
H          H       0.83733   0.46115   0.64347 
H          H       0.46115   0.62382   0.64347 
H          H       0.37618   0.83733   0.64347 
H          H       0.16267   0.53885   0.64347 
H          H       0.57318   0.33643   0.65637 
H          H       0.66357   0.23675   0.65637 
H          H       0.76325   0.42682   0.65637 
H          H       0.42682   0.66357   0.65637 
H          H       0.33643   0.76325   0.65637 
H          H       0.23675   0.57318   0.65637 
