data_crystal

_cell_length_a    37.68800
_cell_length_b    37.68800
_cell_length_c    7.36940
_cell_angle_alpha 90.00000
_cell_angle_beta  90.00000
_cell_angle_gamma 120.00000

_space_group_name_Hall 'P 1'
_space_group_name_H-M_alt  'P 1'

loop_
_symmetry_equiv_pos_as_xyz
'x,y,z' 

loop_
_atom_site_label
_atom_site_type_symbol
_atom_site_fract_x
_atom_site_fract_y
_atom_site_fract_z
C          C       0.29005   0.64287   0.39295 
C          C       0.31410   0.62396   0.39279 
C          C       0.24439   0.61766   0.39623 
C          C       0.36790   0.58752   0.32192 
C          C       0.39168   0.56859   0.32803 
C          C       0.43098   0.58827   0.40706 
C          C       0.44683   0.62763   0.47858 
C          C       0.42389   0.64728   0.47798 
N          N       0.45620   0.56964   0.41267 
C          C       0.44276   0.53051   0.40669 
C          C       0.47142   0.51445   0.40864 
C          C       0.45618   0.47199   0.40488 
C          C       0.48369   0.45709   0.40854 
O          O       0.41352   0.44552   0.40532 
C          C       0.37203   0.37211   0.42020 
O          O       0.34532   0.33838   0.30903 
C          C       0.34823   0.30320   0.33756 
C          C       0.31207   0.26623   0.37058 
C          C       0.31283   0.22986   0.39530 
C          C       0.34980   0.22987   0.38464 
C          C       0.38606   0.26624   0.34798 
C          C       0.38558   0.30320   0.32310 
N          N       0.42108   0.33809   0.28166 
C          C       0.45725   0.33858   0.26587 
C          C       0.45884   0.30267   0.29122 
C          C       0.42297   0.26632   0.33230 
C          C       0.61976   0.58778   0.32833 
H          H       0.29876   0.58912   0.39251 
H          H       0.33632   0.57115   0.25598 
H          H       0.37935   0.53664   0.26837 
H          H       0.47901   0.64415   0.03864 
H          H       0.43702   0.67910   0.04019 
H          H       0.40842   0.50798   0.39982 
H          H       0.47159   0.42267   0.41148 
H          H       0.40220   0.37238   0.43870 
H          H       0.35716   0.36917   0.05824 
H          H       0.28175   0.26603   0.37720 
H          H       0.28319   0.20007   0.42425 
H          H       0.35034   0.20018   0.40588 
H          H       0.48645   0.36838   0.23181 
H          H       0.48927   0.30326   0.27827 
H          H       0.42389   0.23681   0.35293 
H          H       0.64793   0.58423   0.34385 
H          H       0.61334   0.58890   0.17790 
C          C       0.35713   0.64718   0.39295 
C          C       0.35282   0.70995   0.39295 
C          C       0.70995   0.35713   0.39295 
C          C       0.64287   0.35282   0.39295 
C          C       0.64718   0.29005   0.39295 
C          C       0.37604   0.69014   0.39279 
C          C       0.30986   0.68590   0.39279 
C          C       0.68590   0.37604   0.39279 
C          C       0.62396   0.30986   0.39279 
C          C       0.69014   0.31410   0.39279 
C          C       0.38234   0.62673   0.39623 
C          C       0.37327   0.75561   0.39623 
C          C       0.75561   0.38234   0.39623 
C          C       0.61766   0.37327   0.39623 
C          C       0.62673   0.24439   0.39623 
C          C       0.41248   0.78038   0.32192 
C          C       0.21962   0.63210   0.32192 
C          C       0.63210   0.41248   0.32192 
C          C       0.58752   0.21962   0.32192 
C          C       0.78038   0.36790   0.32192 
C          C       0.43141   0.82309   0.32803 
C          C       0.17691   0.60832   0.32803 
C          C       0.60832   0.43141   0.32803 
C          C       0.56859   0.17691   0.32803 
C          C       0.82309   0.39168   0.32803 
C          C       0.41173   0.84271   0.40706 
C          C       0.15729   0.56902   0.40706 
C          C       0.56902   0.41173   0.40706 
C          C       0.58827   0.15729   0.40706 
C          C       0.84271   0.43098   0.40706 
C          C       0.37237   0.81920   0.47858 
C          C       0.18080   0.55317   0.47858 
C          C       0.55317   0.37237   0.47858 
C          C       0.62763   0.18080   0.47858 
C          C       0.81920   0.44683   0.47858 
C          C       0.35272   0.77661   0.47798 
C          C       0.22339   0.57611   0.47798 
C          C       0.57611   0.35272   0.47798 
C          C       0.64728   0.22339   0.47798 
C          C       0.77661   0.42389   0.47798 
N          N       0.43036   0.88656   0.41267 
N          N       0.11344   0.54380   0.41267 
N          N       0.54380   0.43036   0.41267 
N          N       0.56964   0.11344   0.41267 
N          N       0.88656   0.45620   0.41267 
C          C       0.46949   0.91225   0.40669 
C          C       0.08775   0.55724   0.40669 
C          C       0.55724   0.46949   0.40669 
C          C       0.53051   0.08775   0.40669 
C          C       0.91225   0.44276   0.40669 
C          C       0.48555   0.95697   0.40864 
C          C       0.04303   0.52858   0.40864 
C          C       0.52858   0.48555   0.40864 
C          C       0.51445   0.04303   0.40864 
C          C       0.95697   0.47142   0.40864 
C          C       0.52801   0.98419   0.40488 
C          C       0.01581   0.54382   0.40488 
C          C       0.54382   0.52801   0.40488 
C          C       0.47199   0.01581   0.40488 
C          C       0.98419   0.45618   0.40488 
C          C       0.54291   0.02660   0.40854 
C          C       0.97340   0.51631   0.40854 
C          C       0.51631   0.54291   0.40854 
C          C       0.45709   0.97340   0.40854 
C          C       0.02660   0.48369   0.40854 
O          O       0.55448   0.96800   0.40532 
O          O       0.03200   0.58648   0.40532 
O          O       0.58648   0.55448   0.40532 
O          O       0.44552   0.03200   0.40532 
O          O       0.96800   0.41352   0.40532 
C          C       0.62789   0.99992   0.42020 
C          C       0.00008   0.62797   0.42020 
C          C       0.62797   0.62789   0.42020 
C          C       0.37211   0.00008   0.42020 
C          C       0.99992   0.37203   0.42020 
O          O       0.66162   0.00694   0.30903 
O          O       0.99306   0.65468   0.30903 
O          O       0.65468   0.66162   0.30903 
O          O       0.33838   0.99306   0.30903 
O          O       0.00694   0.34532   0.30903 
C          C       0.69680   0.04503   0.33756 
C          C       0.95497   0.65177   0.33756 
C          C       0.65177   0.69680   0.33756 
C          C       0.30320   0.95497   0.33756 
C          C       0.04503   0.34823   0.33756 
C          C       0.73377   0.04584   0.37058 
C          C       0.95416   0.68793   0.37058 
C          C       0.68793   0.73377   0.37058 
C          C       0.26623   0.95416   0.37058 
C          C       0.04584   0.31207   0.37058 
C          C       0.77014   0.08297   0.39530 
C          C       0.91703   0.68717   0.39530 
C          C       0.68717   0.77014   0.39530 
C          C       0.22986   0.91703   0.39530 
C          C       0.08297   0.31283   0.39530 
C          C       0.77013   0.11993   0.38464 
C          C       0.88007   0.65020   0.38464 
C          C       0.65020   0.77013   0.38464 
C          C       0.22987   0.88007   0.38464 
C          C       0.11993   0.34980   0.38464 
C          C       0.73376   0.11982   0.34798 
C          C       0.88018   0.61394   0.34798 
C          C       0.61394   0.73376   0.34798 
C          C       0.26624   0.88018   0.34798 
C          C       0.11982   0.38606   0.34798 
C          C       0.69680   0.08238   0.32310 
C          C       0.91762   0.61442   0.32310 
C          C       0.61442   0.69680   0.32310 
C          C       0.30320   0.91762   0.32310 
C          C       0.08238   0.38558   0.32310 
N          N       0.66191   0.08299   0.28166 
N          N       0.91701   0.57892   0.28166 
N          N       0.57892   0.66191   0.28166 
N          N       0.33809   0.91701   0.28166 
N          N       0.08299   0.42108   0.28166 
C          C       0.66142   0.11867   0.26587 
C          C       0.88133   0.54275   0.26587 
C          C       0.54275   0.66142   0.26587 
C          C       0.33858   0.88133   0.26587 
C          C       0.11867   0.45725   0.26587 
C          C       0.69733   0.15617   0.29122 
C          C       0.84383   0.54116   0.29122 
C          C       0.54116   0.69733   0.29122 
C          C       0.30267   0.84383   0.29122 
C          C       0.15617   0.45884   0.29122 
C          C       0.73368   0.15665   0.33230 
C          C       0.84335   0.57703   0.33230 
C          C       0.57703   0.73368   0.33230 
C          C       0.26632   0.84335   0.33230 
C          C       0.15665   0.42297   0.33230 
C          C       0.41222   0.03198   0.32833 
C          C       0.96802   0.38024   0.32833 
C          C       0.38024   0.41222   0.32833 
C          C       0.58778   0.96802   0.32833 
C          C       0.03198   0.61976   0.32833 
H          H       0.41088   0.70964   0.39251 
H          H       0.29036   0.70124   0.39251 
H          H       0.70124   0.41088   0.39251 
H          H       0.58912   0.29036   0.39251 
H          H       0.70964   0.29876   0.39251 
H          H       0.42885   0.76517   0.25598 
H          H       0.23483   0.66368   0.25598 
H          H       0.66368   0.42885   0.25598 
H          H       0.57115   0.23483   0.25598 
H          H       0.76517   0.33632   0.25598 
H          H       0.46336   0.84271   0.26837 
H          H       0.15729   0.62065   0.26837 
H          H       0.62065   0.46336   0.26837 
H          H       0.53664   0.15729   0.26837 
H          H       0.84271   0.37935   0.26837 
H          H       0.35585   0.83486   0.03864 
H          H       0.16514   0.52099   0.03864 
H          H       0.52099   0.35585   0.03864 
H          H       0.64415   0.16514   0.03864 
H          H       0.83486   0.47901   0.03864 
H          H       0.32090   0.75792   0.04019 
H          H       0.24208   0.56298   0.04019 
H          H       0.56298   0.32090   0.04019 
H          H       0.67910   0.24208   0.04019 
H          H       0.75792   0.43702   0.04019 
H          H       0.49202   0.90044   0.39982 
H          H       0.09956   0.59158   0.39982 
H          H       0.59158   0.49202   0.39982 
H          H       0.50798   0.09956   0.39982 
H          H       0.90044   0.40842   0.39982 
H          H       0.57733   0.04892   0.41148 
H          H       0.95108   0.52841   0.41148 
H          H       0.52841   0.57733   0.41148 
H          H       0.42267   0.95108   0.41148 
H          H       0.04892   0.47159   0.41148 
H          H       0.62762   0.02982   0.43870 
H          H       0.97018   0.59780   0.43870 
H          H       0.59780   0.62762   0.43870 
H          H       0.37238   0.97018   0.43870 
H          H       0.02982   0.40220   0.43870 
H          H       0.63083   0.98799   0.05824 
H          H       0.01201   0.64284   0.05824 
H          H       0.64284   0.63083   0.05824 
H          H       0.36917   0.01201   0.05824 
H          H       0.98799   0.35716   0.05824 
H          H       0.73397   0.01572   0.37720 
H          H       0.98428   0.71825   0.37720 
H          H       0.71825   0.73397   0.37720 
H          H       0.26603   0.98428   0.37720 
H          H       0.01572   0.28175   0.37720 
H          H       0.79993   0.08312   0.42425 
H          H       0.91688   0.71681   0.42425 
H          H       0.71681   0.79993   0.42425 
H          H       0.20007   0.91688   0.42425 
H          H       0.08312   0.28319   0.42425 
H          H       0.79982   0.15016   0.40588 
H          H       0.84984   0.64966   0.40588 
H          H       0.64966   0.79982   0.40588 
H          H       0.20018   0.84984   0.40588 
H          H       0.15016   0.35034   0.40588 
H          H       0.63162   0.11807   0.23181 
H          H       0.88193   0.51355   0.23181 
H          H       0.51355   0.63162   0.23181 
H          H       0.36838   0.88193   0.23181 
H          H       0.11807   0.48645   0.23181 
H          H       0.69674   0.18601   0.27827 
H          H       0.81399   0.51073   0.27827 
H          H       0.51073   0.69674   0.27827 
H          H       0.30326   0.81399   0.27827 
H          H       0.18601   0.48927   0.27827 
H          H       0.76319   0.18708   0.35293 
H          H       0.81292   0.57611   0.35293 
H          H       0.57611   0.76319   0.35293 
H          H       0.23681   0.81292   0.35293 
H          H       0.18708   0.42389   0.35293 
H          H       0.41577   0.06370   0.34385 
H          H       0.93630   0.35207   0.34385 
H          H       0.35207   0.41577   0.34385 
H          H       0.58423   0.93630   0.34385 
H          H       0.06370   0.64793   0.34385 
H          H       0.41110   0.02444   0.17790 
H          H       0.97556   0.38666   0.17790 
H          H       0.38666   0.41110   0.17790 
H          H       0.58890   0.97556   0.17790 
H          H       0.02444   0.61334   0.17790 
C          C       0.29005   0.64287   0.89295 
C          C       0.31410   0.62396   0.89279 
C          C       0.24439   0.61766   0.89623 
C          C       0.36790   0.58752   0.82192 
C          C       0.39168   0.56859   0.82803 
C          C       0.43098   0.58827   0.90706 
C          C       0.44683   0.62763   0.97858 
C          C       0.42389   0.64728   0.97798 
N          N       0.45620   0.56964   0.91267 
C          C       0.44276   0.53051   0.90669 
C          C       0.47142   0.51445   0.90864 
C          C       0.45618   0.47199   0.90488 
C          C       0.48369   0.45709   0.90854 
O          O       0.41352   0.44552   0.90532 
C          C       0.37203   0.37211   0.92020 
O          O       0.34532   0.33838   0.80903 
C          C       0.34823   0.30320   0.83756 
C          C       0.31207   0.26623   0.87058 
C          C       0.31283   0.22986   0.89530 
C          C       0.34980   0.22987   0.88464 
C          C       0.38606   0.26624   0.84798 
C          C       0.38558   0.30320   0.82310 
N          N       0.42108   0.33809   0.78166 
C          C       0.45725   0.33858   0.76587 
C          C       0.45884   0.30267   0.79122 
C          C       0.42297   0.26632   0.83230 
C          C       0.61976   0.58778   0.82833 
H          H       0.29876   0.58912   0.89251 
H          H       0.33632   0.57115   0.75598 
H          H       0.37935   0.53664   0.76837 
H          H       0.47901   0.64415   0.53864 
H          H       0.43702   0.67910   0.54019 
H          H       0.40842   0.50798   0.89982 
H          H       0.47159   0.42267   0.91148 
H          H       0.40220   0.37238   0.93870 
H          H       0.35716   0.36917   0.55824 
H          H       0.28175   0.26603   0.87720 
H          H       0.28319   0.20007   0.92425 
H          H       0.35034   0.20018   0.90588 
H          H       0.48645   0.36838   0.73181 
H          H       0.48927   0.30326   0.77827 
H          H       0.42389   0.23681   0.85293 
H          H       0.64793   0.58423   0.84385 
H          H       0.61334   0.58890   0.67790 
C          C       0.35713   0.64718   0.89295 
C          C       0.35282   0.70995   0.89295 
C          C       0.70995   0.35713   0.89295 
C          C       0.64287   0.35282   0.89295 
C          C       0.64718   0.29005   0.89295 
C          C       0.37604   0.69014   0.89279 
C          C       0.30986   0.68590   0.89279 
C          C       0.68590   0.37604   0.89279 
C          C       0.62396   0.30986   0.89279 
C          C       0.69014   0.31410   0.89279 
C          C       0.38234   0.62673   0.89623 
C          C       0.37327   0.75561   0.89623 
C          C       0.75561   0.38234   0.89623 
C          C       0.61766   0.37327   0.89623 
C          C       0.62673   0.24439   0.89623 
C          C       0.41248   0.78038   0.82192 
C          C       0.21962   0.63210   0.82192 
C          C       0.63210   0.41248   0.82192 
C          C       0.58752   0.21962   0.82192 
C          C       0.78038   0.36790   0.82192 
C          C       0.43141   0.82309   0.82803 
C          C       0.17691   0.60832   0.82803 
C          C       0.60832   0.43141   0.82803 
C          C       0.56859   0.17691   0.82803 
C          C       0.82309   0.39168   0.82803 
C          C       0.41173   0.84271   0.90706 
C          C       0.15729   0.56902   0.90706 
C          C       0.56902   0.41173   0.90706 
C          C       0.58827   0.15729   0.90706 
C          C       0.84271   0.43098   0.90706 
C          C       0.37237   0.81920   0.97858 
C          C       0.18080   0.55317   0.97858 
C          C       0.55317   0.37237   0.97858 
C          C       0.62763   0.18080   0.97858 
C          C       0.81920   0.44683   0.97858 
C          C       0.35272   0.77661   0.97798 
C          C       0.22339   0.57611   0.97798 
C          C       0.57611   0.35272   0.97798 
C          C       0.64728   0.22339   0.97798 
C          C       0.77661   0.42389   0.97798 
N          N       0.43036   0.88656   0.91267 
N          N       0.11344   0.54380   0.91267 
N          N       0.54380   0.43036   0.91267 
N          N       0.56964   0.11344   0.91267 
N          N       0.88656   0.45620   0.91267 
C          C       0.46949   0.91225   0.90669 
C          C       0.08775   0.55724   0.90669 
C          C       0.55724   0.46949   0.90669 
C          C       0.53051   0.08775   0.90669 
C          C       0.91225   0.44276   0.90669 
C          C       0.48555   0.95697   0.90864 
C          C       0.04303   0.52858   0.90864 
C          C       0.52858   0.48555   0.90864 
C          C       0.51445   0.04303   0.90864 
C          C       0.95697   0.47142   0.90864 
C          C       0.52801   0.98419   0.90488 
C          C       0.01581   0.54382   0.90488 
C          C       0.54382   0.52801   0.90488 
C          C       0.47199   0.01581   0.90488 
C          C       0.98419   0.45618   0.90488 
C          C       0.54291   0.02660   0.90854 
C          C       0.97340   0.51631   0.90854 
C          C       0.51631   0.54291   0.90854 
C          C       0.45709   0.97340   0.90854 
C          C       0.02660   0.48369   0.90854 
O          O       0.55448   0.96800   0.90532 
O          O       0.03200   0.58648   0.90532 
O          O       0.58648   0.55448   0.90532 
O          O       0.44552   0.03200   0.90532 
O          O       0.96800   0.41352   0.90532 
C          C       0.62789   0.99992   0.92020 
C          C       0.00008   0.62797   0.92020 
C          C       0.62797   0.62789   0.92020 
C          C       0.37211   0.00008   0.92020 
C          C       0.99992   0.37203   0.92020 
O          O       0.66162   0.00694   0.80903 
O          O       0.99306   0.65468   0.80903 
O          O       0.65468   0.66162   0.80903 
O          O       0.33838   0.99306   0.80903 
O          O       0.00694   0.34532   0.80903 
C          C       0.69680   0.04503   0.83756 
C          C       0.95497   0.65177   0.83756 
C          C       0.65177   0.69680   0.83756 
C          C       0.30320   0.95497   0.83756 
C          C       0.04503   0.34823   0.83756 
C          C       0.73377   0.04584   0.87058 
C          C       0.95416   0.68793   0.87058 
C          C       0.68793   0.73377   0.87058 
C          C       0.26623   0.95416   0.87058 
C          C       0.04584   0.31207   0.87058 
C          C       0.77014   0.08297   0.89530 
C          C       0.91703   0.68717   0.89530 
C          C       0.68717   0.77014   0.89530 
C          C       0.22986   0.91703   0.89530 
C          C       0.08297   0.31283   0.89530 
C          C       0.77013   0.11993   0.88464 
C          C       0.88007   0.65020   0.88464 
C          C       0.65020   0.77013   0.88464 
C          C       0.22987   0.88007   0.88464 
C          C       0.11993   0.34980   0.88464 
C          C       0.73376   0.11982   0.84798 
C          C       0.88018   0.61394   0.84798 
C          C       0.61394   0.73376   0.84798 
C          C       0.26624   0.88018   0.84798 
C          C       0.11982   0.38606   0.84798 
C          C       0.69680   0.08238   0.82310 
C          C       0.91762   0.61442   0.82310 
C          C       0.61442   0.69680   0.82310 
C          C       0.30320   0.91762   0.82310 
C          C       0.08238   0.38558   0.82310 
N          N       0.66191   0.08299   0.78166 
N          N       0.91701   0.57892   0.78166 
N          N       0.57892   0.66191   0.78166 
N          N       0.33809   0.91701   0.78166 
N          N       0.08299   0.42108   0.78166 
C          C       0.66142   0.11867   0.76587 
C          C       0.88133   0.54275   0.76587 
C          C       0.54275   0.66142   0.76587 
C          C       0.33858   0.88133   0.76587 
C          C       0.11867   0.45725   0.76587 
C          C       0.69733   0.15617   0.79122 
C          C       0.84383   0.54116   0.79122 
C          C       0.54116   0.69733   0.79122 
C          C       0.30267   0.84383   0.79122 
C          C       0.15617   0.45884   0.79122 
C          C       0.73368   0.15665   0.83230 
C          C       0.84335   0.57703   0.83230 
C          C       0.57703   0.73368   0.83230 
C          C       0.26632   0.84335   0.83230 
C          C       0.15665   0.42297   0.83230 
C          C       0.41222   0.03198   0.82833 
C          C       0.96802   0.38024   0.82833 
C          C       0.38024   0.41222   0.82833 
C          C       0.58778   0.96802   0.82833 
C          C       0.03198   0.61976   0.82833 
H          H       0.41088   0.70964   0.89251 
H          H       0.29036   0.70124   0.89251 
H          H       0.70124   0.41088   0.89251 
H          H       0.58912   0.29036   0.89251 
H          H       0.70964   0.29876   0.89251 
H          H       0.42885   0.76517   0.75598 
H          H       0.23483   0.66368   0.75598 
H          H       0.66368   0.42885   0.75598 
H          H       0.57115   0.23483   0.75598 
H          H       0.76517   0.33632   0.75598 
H          H       0.46336   0.84271   0.76837 
H          H       0.15729   0.62065   0.76837 
H          H       0.62065   0.46336   0.76837 
H          H       0.53664   0.15729   0.76837 
H          H       0.84271   0.37935   0.76837 
H          H       0.35585   0.83486   0.53864 
H          H       0.16514   0.52099   0.53864 
H          H       0.52099   0.35585   0.53864 
H          H       0.64415   0.16514   0.53864 
H          H       0.83486   0.47901   0.53864 
H          H       0.32090   0.75792   0.54019 
H          H       0.24208   0.56298   0.54019 
H          H       0.56298   0.32090   0.54019 
H          H       0.67910   0.24208   0.54019 
H          H       0.75792   0.43702   0.54019 
H          H       0.49202   0.90044   0.89982 
H          H       0.09956   0.59158   0.89982 
H          H       0.59158   0.49202   0.89982 
H          H       0.50798   0.09956   0.89982 
H          H       0.90044   0.40842   0.89982 
H          H       0.57733   0.04892   0.91148 
H          H       0.95108   0.52841   0.91148 
H          H       0.52841   0.57733   0.91148 
H          H       0.42267   0.95108   0.91148 
H          H       0.04892   0.47159   0.91148 
H          H       0.62762   0.02982   0.93870 
H          H       0.97018   0.59780   0.93870 
H          H       0.59780   0.62762   0.93870 
H          H       0.37238   0.97018   0.93870 
H          H       0.02982   0.40220   0.93870 
H          H       0.63083   0.98799   0.55824 
H          H       0.01201   0.64284   0.55824 
H          H       0.64284   0.63083   0.55824 
H          H       0.36917   0.01201   0.55824 
H          H       0.98799   0.35716   0.55824 
H          H       0.73397   0.01572   0.87720 
H          H       0.98428   0.71825   0.87720 
H          H       0.71825   0.73397   0.87720 
H          H       0.26603   0.98428   0.87720 
H          H       0.01572   0.28175   0.87720 
H          H       0.79993   0.08312   0.92425 
H          H       0.91688   0.71681   0.92425 
H          H       0.71681   0.79993   0.92425 
H          H       0.20007   0.91688   0.92425 
H          H       0.08312   0.28319   0.92425 
H          H       0.79982   0.15016   0.90588 
H          H       0.84984   0.64966   0.90588 
H          H       0.64966   0.79982   0.90588 
H          H       0.20018   0.84984   0.90588 
H          H       0.15016   0.35034   0.90588 
H          H       0.63162   0.11807   0.73181 
H          H       0.88193   0.51355   0.73181 
H          H       0.51355   0.63162   0.73181 
H          H       0.36838   0.88193   0.73181 
H          H       0.11807   0.48645   0.73181 
H          H       0.69674   0.18601   0.77827 
H          H       0.81399   0.51073   0.77827 
H          H       0.51073   0.69674   0.77827 
H          H       0.30326   0.81399   0.77827 
H          H       0.18601   0.48927   0.77827 
H          H       0.76319   0.18708   0.85293 
H          H       0.81292   0.57611   0.85293 
H          H       0.57611   0.76319   0.85293 
H          H       0.23681   0.81292   0.85293 
H          H       0.18708   0.42389   0.85293 
H          H       0.41577   0.06370   0.84385 
H          H       0.93630   0.35207   0.84385 
H          H       0.35207   0.41577   0.84385 
H          H       0.58423   0.93630   0.84385 
H          H       0.06370   0.64793   0.84385 
H          H       0.41110   0.02444   0.67790 
H          H       0.97556   0.38666   0.67790 
H          H       0.38666   0.41110   0.67790 
H          H       0.58890   0.97556   0.67790 
H          H       0.02444   0.61334   0.67790 
