data_crystal
 
_cell_length_a    42.43250
_cell_length_b    30.64710
_cell_length_c    9.31940
_cell_angle_alpha 90.00000
_cell_angle_beta  90.00000
_cell_angle_gamma 90.00000
 
_symmetry_space_group_name_Hall 'P 1'
_symmetry_space_group_name_H-M  'P 1'
 
loop_
_symmetry_equiv_pos_as_xyz
 'x,y,z' 
 
loop_
_atom_site_label
_atom_site_type_symbol
_atom_site_fract_x
_atom_site_fract_y
_atom_site_fract_z
_atom_site_charge
C          C       0.36299   0.37105  -0.14569   0.0000000000
C          C       0.39177   0.39473  -0.14333   0.0000000000
C          C       0.41548   0.38815  -0.03753   0.0000000000
C          C       0.35646   0.33762  -0.04741   0.0000000000
H          H       0.39487   0.42022  -0.22203   0.0000000000
C          C       0.61895   0.67228   0.05141   0.0000000000
C          C       0.59017   0.64744   0.05640   0.0000000000
H          H       0.62217   0.69786   0.12929   0.0000000000
H          H       0.57344   0.65431   0.14133   0.0000000000
C          C       0.47396   0.40793  -0.00713   0.0000000000
C          C       0.43312   0.46475  -0.00877   0.0000000000
C          C       0.48388   0.36511  -0.00663   0.0000000000
C          C       0.40183   0.47825  -0.00089   0.0000000000
H          H       0.46952   0.33619  -0.01521   0.0000000000
H          H       0.38037   0.45923   0.00526   0.0000000000
C          C       0.55868   0.42009   0.01815   0.0000000000
N          N       0.17320   0.81754  -0.05214   0.0000000000
C          C       0.18580   0.78438   0.02958   0.0000000000
C          C       0.21780   0.76755   0.01316   0.0000000000
C          C       0.23997   0.78486  -0.08496   0.0000000000
C          C       0.22869   0.73212   0.09785   0.0000000000
H          H       0.17094   0.76981   0.11088   0.0000000000
H          H       0.23317   0.81180  -0.15283   0.0000000000
F          F       0.29108   0.78654  -0.19468   0.0000000000
C          C       0.63701   0.62895  -0.14569   0.0000000000
C          C       0.60823   0.60527  -0.14333   0.0000000000
C          C       0.58452   0.61185  -0.03753   0.0000000000
C          C       0.64354   0.66238  -0.04741   0.0000000000
H          H       0.60513   0.57978  -0.22203   0.0000000000
C          C       0.38105   0.32772   0.05141   0.0000000000
C          C       0.40983   0.35256   0.05640   0.0000000000
H          H       0.37783   0.30214   0.12929   0.0000000000
H          H       0.42656   0.34569   0.14133   0.0000000000
C          C       0.52604   0.59207  -0.00713   0.0000000000
C          C       0.56688   0.53525  -0.00877   0.0000000000
C          C       0.51612   0.63489  -0.00663   0.0000000000
C          C       0.59817   0.52175  -0.00089   0.0000000000
H          H       0.53048   0.66381  -0.01521   0.0000000000
H          H       0.61963   0.54077   0.00526   0.0000000000
C          C       0.44132   0.57991   0.01815   0.0000000000
N          N       0.82680   0.18246  -0.05214   0.0000000000
C          C       0.81420   0.21562   0.02958   0.0000000000
C          C       0.78220   0.23245   0.01316   0.0000000000
C          C       0.76003   0.21514  -0.08496   0.0000000000
C          C       0.77131   0.26788   0.09785   0.0000000000
H          H       0.82906   0.23019   0.11088   0.0000000000
H          H       0.76683   0.18820  -0.15283   0.0000000000
F          F       0.70892   0.21346  -0.19468   0.0000000000
C          C       0.63701   0.37105   0.14569   0.0000000000
C          C       0.60823   0.39473   0.14333   0.0000000000
C          C       0.58452   0.38815   0.03753   0.0000000000
C          C       0.64354   0.33762   0.04741   0.0000000000
H          H       0.60513   0.42022   0.22203   0.0000000000
C          C       0.38105   0.67228  -0.05141   0.0000000000
C          C       0.40983   0.64744  -0.05640   0.0000000000
H          H       0.37783   0.69786  -0.12929   0.0000000000
H          H       0.42656   0.65431  -0.14133   0.0000000000
C          C       0.52604   0.40793   0.00713   0.0000000000
C          C       0.56688   0.46475   0.00877   0.0000000000
C          C       0.51612   0.36511   0.00663   0.0000000000
C          C       0.59817   0.47825   0.00089   0.0000000000
H          H       0.53048   0.33619   0.01521   0.0000000000
H          H       0.61963   0.45923  -0.00526   0.0000000000
C          C       0.44132   0.42009  -0.01815   0.0000000000
N          N       0.82680   0.81754   0.05214   0.0000000000
C          C       0.81420   0.78438  -0.02958   0.0000000000
C          C       0.78220   0.76755  -0.01316   0.0000000000
C          C       0.76003   0.78486   0.08496   0.0000000000
C          C       0.77131   0.73212  -0.09785   0.0000000000
H          H       0.82906   0.76981  -0.11088   0.0000000000
H          H       0.76683   0.81180   0.15283   0.0000000000
F          F       0.70892   0.78654   0.19468   0.0000000000
C          C       0.36299   0.62895   0.14569   0.0000000000
C          C       0.39177   0.60527   0.14333   0.0000000000
C          C       0.41548   0.61185   0.03753   0.0000000000
C          C       0.35646   0.66238   0.04741   0.0000000000
H          H       0.39487   0.57978   0.22203   0.0000000000
C          C       0.61895   0.32772  -0.05141   0.0000000000
C          C       0.59017   0.35256  -0.05640   0.0000000000
H          H       0.62217   0.30214  -0.12929   0.0000000000
H          H       0.57344   0.34569  -0.14133   0.0000000000
C          C       0.47396   0.59207   0.00713   0.0000000000
C          C       0.43312   0.53525   0.00877   0.0000000000
C          C       0.48388   0.63489   0.00663   0.0000000000
C          C       0.40183   0.52175   0.00089   0.0000000000
H          H       0.46952   0.66381   0.01521   0.0000000000
H          H       0.38037   0.54077  -0.00526   0.0000000000
C          C       0.55868   0.57991  -0.01815   0.0000000000
N          N       0.17320   0.18246   0.05214   0.0000000000
C          C       0.18580   0.21562  -0.02958   0.0000000000
C          C       0.21780   0.23245  -0.01316   0.0000000000
C          C       0.23997   0.21514   0.08496   0.0000000000
C          C       0.22869   0.26788  -0.09785   0.0000000000
H          H       0.17094   0.23019  -0.11088   0.0000000000
H          H       0.23317   0.18820   0.15283   0.0000000000
F          F       0.29108   0.21346   0.19468   0.0000000000
C          C       0.13701   0.12895   0.14569   0.0000000000
C          C       0.10823   0.10527   0.14333   0.0000000000
C          C       0.08452   0.11185   0.03753   0.0000000000
C          C       0.14354   0.16238   0.04741   0.0000000000
H          H       0.10513   0.07978   0.22203   0.0000000000
C          C       0.88105   0.82772  -0.05141   0.0000000000
C          C       0.90983   0.85256  -0.05640   0.0000000000
H          H       0.87783   0.80214  -0.12929   0.0000000000
H          H       0.92656   0.84569  -0.14133   0.0000000000
C          C       0.02604   0.09207   0.00713   0.0000000000
C          C       0.06688   0.03525   0.00877   0.0000000000
C          C       0.01612   0.13489   0.00663   0.0000000000
C          C       0.09817   0.02175   0.00089   0.0000000000
H          H       0.03048   0.16381   0.01521   0.0000000000
H          H       0.11963   0.04077  -0.00526   0.0000000000
C          C       0.94132   0.07991  -0.01815   0.0000000000
N          N       0.32680   0.68246   0.05214   0.0000000000
C          C       0.31420   0.71562  -0.02958   0.0000000000
C          C       0.28220   0.73245  -0.01316   0.0000000000
C          C       0.26003   0.71514   0.08496   0.0000000000
C          C       0.27131   0.76788  -0.09785   0.0000000000
H          H       0.32906   0.73019  -0.11088   0.0000000000
H          H       0.26683   0.68820   0.15283   0.0000000000
F          F       0.20892   0.71346   0.19468   0.0000000000
C          C       0.86299   0.87105   0.14569   0.0000000000
C          C       0.89177   0.89473   0.14333   0.0000000000
C          C       0.91548   0.88815   0.03753   0.0000000000
C          C       0.85646   0.83762   0.04741   0.0000000000
H          H       0.89487   0.92022   0.22203   0.0000000000
C          C       0.11895   0.17228  -0.05141   0.0000000000
C          C       0.09017   0.14744  -0.05640   0.0000000000
H          H       0.12217   0.19786  -0.12929   0.0000000000
H          H       0.07344   0.15431  -0.14133   0.0000000000
C          C       0.97396   0.90793   0.00713   0.0000000000
C          C       0.93312   0.96475   0.00877   0.0000000000
C          C       0.98388   0.86511   0.00663   0.0000000000
C          C       0.90183   0.97825   0.00089   0.0000000000
H          H       0.96952   0.83619   0.01521   0.0000000000
H          H       0.88037   0.95923  -0.00526   0.0000000000
C          C       0.05868   0.92009  -0.01815   0.0000000000
N          N       0.67320   0.31754   0.05214   0.0000000000
C          C       0.68580   0.28438  -0.02958   0.0000000000
C          C       0.71780   0.26755  -0.01316   0.0000000000
C          C       0.73997   0.28486   0.08496   0.0000000000
C          C       0.72869   0.23212  -0.09785   0.0000000000
H          H       0.67094   0.26981  -0.11088   0.0000000000
H          H       0.73317   0.31180   0.15283   0.0000000000
F          F       0.79108   0.28654   0.19468   0.0000000000
C          C       0.86299   0.12895  -0.14569   0.0000000000
C          C       0.89177   0.10527  -0.14333   0.0000000000
C          C       0.91548   0.11185  -0.03753   0.0000000000
C          C       0.85646   0.16238  -0.04741   0.0000000000
H          H       0.89487   0.07978  -0.22203   0.0000000000
C          C       0.11895   0.82772   0.05141   0.0000000000
C          C       0.09017   0.85256   0.05640   0.0000000000
H          H       0.12217   0.80214   0.12929   0.0000000000
H          H       0.07344   0.84569   0.14133   0.0000000000
C          C       0.97396   0.09207  -0.00713   0.0000000000
C          C       0.93312   0.03525  -0.00877   0.0000000000
C          C       0.98388   0.13489  -0.00663   0.0000000000
C          C       0.90183   0.02175  -0.00089   0.0000000000
H          H       0.96952   0.16381  -0.01521   0.0000000000
H          H       0.88037   0.04077   0.00526   0.0000000000
C          C       0.05868   0.07991   0.01815   0.0000000000
N          N       0.67320   0.68246  -0.05214   0.0000000000
C          C       0.68580   0.71562   0.02958   0.0000000000
C          C       0.71780   0.73245   0.01316   0.0000000000
C          C       0.73997   0.71514  -0.08496   0.0000000000
C          C       0.72869   0.76788   0.09785   0.0000000000
H          H       0.67094   0.73019   0.11088   0.0000000000
H          H       0.73317   0.68820  -0.15283   0.0000000000
F          F       0.79108   0.71346  -0.19468   0.0000000000
C          C       0.13701   0.87105  -0.14569   0.0000000000
C          C       0.10823   0.89473  -0.14333   0.0000000000
C          C       0.08452   0.88815  -0.03753   0.0000000000
C          C       0.14354   0.83762  -0.04741   0.0000000000
H          H       0.10513   0.92022  -0.22203   0.0000000000
C          C       0.88105   0.17228   0.05141   0.0000000000
C          C       0.90983   0.14744   0.05640   0.0000000000
H          H       0.87783   0.19786   0.12929   0.0000000000
H          H       0.92656   0.15431   0.14133   0.0000000000
C          C       0.02604   0.90793  -0.00713   0.0000000000
C          C       0.06688   0.96475  -0.00877   0.0000000000
C          C       0.01612   0.86511  -0.00663   0.0000000000
C          C       0.09817   0.97825  -0.00089   0.0000000000
H          H       0.03048   0.83619  -0.01521   0.0000000000
H          H       0.11963   0.95923   0.00526   0.0000000000
C          C       0.94132   0.92009   0.01815   0.0000000000
N          N       0.32680   0.31754  -0.05214   0.0000000000
C          C       0.31420   0.28438   0.02958   0.0000000000
C          C       0.28220   0.26755   0.01316   0.0000000000
C          C       0.26003   0.28486  -0.08496   0.0000000000
C          C       0.27131   0.23212   0.09785   0.0000000000
H          H       0.32906   0.26981   0.11088   0.0000000000
H          H       0.26683   0.31180  -0.15283   0.0000000000
F          F       0.20892   0.28654  -0.19468   0.0000000000
N          N       0.50000   0.56475   0.00000   0.0000000000
N          N       0.50000   0.43525   0.00000   0.0000000000
N          N       0.00000   0.93525   0.00000   0.0000000000
N          N       0.00000   0.06475   0.00000   0.0000000000
N          N       0.45313   0.50000   0.00000   0.0000000000
N          N       0.54687   0.50000   0.00000   0.0000000000
N          N       0.04687   0.00000   0.00000   0.0000000000
N          N       0.95313   0.00000   0.00000   0.0000000000
Co         Co      0.50000   0.50000   0.00000   0.0000000000
Co         Co      0.00000   0.00000   0.00000   0.0000000000
C          C       0.36299   0.37105   0.35431   0.0000000000
C          C       0.39177   0.39473   0.35667   0.0000000000
C          C       0.41548   0.38815   0.46247   0.0000000000
C          C       0.35646   0.33762   0.45259   0.0000000000
H          H       0.39487   0.42022   0.27797   0.0000000000
C          C       0.61895   0.67228   0.55141   0.0000000000
C          C       0.59017   0.64744   0.55640   0.0000000000
H          H       0.62217   0.69786   0.62929   0.0000000000
H          H       0.57344   0.65431   0.64133   0.0000000000
C          C       0.47396   0.40793   0.49286   0.0000000000
C          C       0.43312   0.46475   0.49123   0.0000000000
C          C       0.48388   0.36511   0.49337   0.0000000000
C          C       0.40183   0.47825   0.49911   0.0000000000
H          H       0.46952   0.33619   0.48479   0.0000000000
H          H       0.38037   0.45923   0.50526   0.0000000000
C          C       0.55868   0.42009   0.51815   0.0000000000
N          N       0.17320   0.81754   0.44786   0.0000000000
C          C       0.18580   0.78438   0.52958   0.0000000000
C          C       0.21780   0.76755   0.51316   0.0000000000
C          C       0.23997   0.78486   0.41503   0.0000000000
C          C       0.22869   0.73212   0.59785   0.0000000000
H          H       0.17094   0.76981   0.61087   0.0000000000
H          H       0.23317   0.81180   0.34717   0.0000000000
F          F       0.29108   0.78654   0.30532   0.0000000000
C          C       0.63701   0.62895   0.35431   0.0000000000
C          C       0.60823   0.60527   0.35667   0.0000000000
C          C       0.58452   0.61185   0.46247   0.0000000000
C          C       0.64354   0.66238   0.45259   0.0000000000
H          H       0.60513   0.57978   0.27797   0.0000000000
C          C       0.38105   0.32772   0.55141   0.0000000000
C          C       0.40983   0.35256   0.55640   0.0000000000
H          H       0.37783   0.30214   0.62929   0.0000000000
H          H       0.42656   0.34569   0.64133   0.0000000000
C          C       0.52604   0.59207   0.49286   0.0000000000
C          C       0.56688   0.53525   0.49123   0.0000000000
C          C       0.51612   0.63489   0.49337   0.0000000000
C          C       0.59817   0.52175   0.49911   0.0000000000
H          H       0.53048   0.66381   0.48479   0.0000000000
H          H       0.61963   0.54077   0.50526   0.0000000000
C          C       0.44132   0.57991   0.51815   0.0000000000
N          N       0.82680   0.18246   0.44786   0.0000000000
C          C       0.81420   0.21562   0.52958   0.0000000000
C          C       0.78220   0.23245   0.51316   0.0000000000
C          C       0.76003   0.21514   0.41503   0.0000000000
C          C       0.77131   0.26788   0.59785   0.0000000000
H          H       0.82906   0.23019   0.61087   0.0000000000
H          H       0.76683   0.18820   0.34717   0.0000000000
F          F       0.70892   0.21346   0.30532   0.0000000000
C          C       0.63701   0.37105   0.64568   0.0000000000
C          C       0.60823   0.39473   0.64333   0.0000000000
C          C       0.58452   0.38815   0.53753   0.0000000000
C          C       0.64354   0.33762   0.54741   0.0000000000
H          H       0.60513   0.42022   0.72203   0.0000000000
C          C       0.38105   0.67228   0.44859   0.0000000000
C          C       0.40983   0.64744   0.44360   0.0000000000
H          H       0.37783   0.69786   0.37071   0.0000000000
H          H       0.42656   0.65431   0.35867   0.0000000000
C          C       0.52604   0.40793   0.50714   0.0000000000
C          C       0.56688   0.46475   0.50877   0.0000000000
C          C       0.51612   0.36511   0.50663   0.0000000000
C          C       0.59817   0.47825   0.50089   0.0000000000
H          H       0.53048   0.33619   0.51521   0.0000000000
H          H       0.61963   0.45923   0.49474   0.0000000000
C          C       0.44132   0.42009   0.48185   0.0000000000
N          N       0.82680   0.81754   0.55214   0.0000000000
C          C       0.81420   0.78438   0.47042   0.0000000000
C          C       0.78220   0.76755   0.48684   0.0000000000
C          C       0.76003   0.78486   0.58496   0.0000000000
C          C       0.77131   0.73212   0.40215   0.0000000000
H          H       0.82906   0.76981   0.38912   0.0000000000
H          H       0.76683   0.81180   0.65283   0.0000000000
F          F       0.70892   0.78654   0.69468   0.0000000000
C          C       0.36299   0.62895   0.64568   0.0000000000
C          C       0.39177   0.60527   0.64333   0.0000000000
C          C       0.41548   0.61185   0.53753   0.0000000000
C          C       0.35646   0.66238   0.54741   0.0000000000
H          H       0.39487   0.57978   0.72203   0.0000000000
C          C       0.61895   0.32772   0.44859   0.0000000000
C          C       0.59017   0.35256   0.44360   0.0000000000
H          H       0.62217   0.30214   0.37071   0.0000000000
H          H       0.57344   0.34569   0.35867   0.0000000000
C          C       0.47396   0.59207   0.50714   0.0000000000
C          C       0.43312   0.53525   0.50877   0.0000000000
C          C       0.48388   0.63489   0.50663   0.0000000000
C          C       0.40183   0.52175   0.50089   0.0000000000
H          H       0.46952   0.66381   0.51521   0.0000000000
H          H       0.38037   0.54077   0.49474   0.0000000000
C          C       0.55868   0.57991   0.48185   0.0000000000
N          N       0.17320   0.18246   0.55214   0.0000000000
C          C       0.18580   0.21562   0.47042   0.0000000000
C          C       0.21780   0.23245   0.48684   0.0000000000
C          C       0.23997   0.21514   0.58496   0.0000000000
C          C       0.22869   0.26788   0.40215   0.0000000000
H          H       0.17094   0.23019   0.38912   0.0000000000
H          H       0.23317   0.18820   0.65283   0.0000000000
F          F       0.29108   0.21346   0.69468   0.0000000000
C          C       0.13701   0.12895   0.64568   0.0000000000
C          C       0.10823   0.10527   0.64333   0.0000000000
C          C       0.08452   0.11185   0.53753   0.0000000000
C          C       0.14354   0.16238   0.54741   0.0000000000
H          H       0.10513   0.07978   0.72203   0.0000000000
C          C       0.88105   0.82772   0.44859   0.0000000000
C          C       0.90983   0.85256   0.44360   0.0000000000
H          H       0.87783   0.80214   0.37071   0.0000000000
H          H       0.92656   0.84569   0.35867   0.0000000000
C          C       0.02604   0.09207   0.50714   0.0000000000
C          C       0.06688   0.03525   0.50877   0.0000000000
C          C       0.01612   0.13489   0.50663   0.0000000000
C          C       0.09817   0.02175   0.50089   0.0000000000
H          H       0.03048   0.16381   0.51521   0.0000000000
H          H       0.11963   0.04077   0.49474   0.0000000000
C          C       0.94132   0.07991   0.48185   0.0000000000
N          N       0.32680   0.68246   0.55214   0.0000000000
C          C       0.31420   0.71562   0.47042   0.0000000000
C          C       0.28220   0.73245   0.48684   0.0000000000
C          C       0.26003   0.71514   0.58496   0.0000000000
C          C       0.27131   0.76788   0.40215   0.0000000000
H          H       0.32906   0.73019   0.38912   0.0000000000
H          H       0.26683   0.68820   0.65283   0.0000000000
F          F       0.20892   0.71346   0.69468   0.0000000000
C          C       0.86299   0.87105   0.64568   0.0000000000
C          C       0.89177   0.89473   0.64333   0.0000000000
C          C       0.91548   0.88815   0.53753   0.0000000000
C          C       0.85646   0.83762   0.54741   0.0000000000
H          H       0.89487   0.92022   0.72203   0.0000000000
C          C       0.11895   0.17228   0.44859   0.0000000000
C          C       0.09017   0.14744   0.44360   0.0000000000
H          H       0.12217   0.19786   0.37071   0.0000000000
H          H       0.07344   0.15431   0.35867   0.0000000000
C          C       0.97396   0.90793   0.50714   0.0000000000
C          C       0.93312   0.96475   0.50877   0.0000000000
C          C       0.98388   0.86511   0.50663   0.0000000000
C          C       0.90183   0.97825   0.50089   0.0000000000
H          H       0.96952   0.83619   0.51521   0.0000000000
H          H       0.88037   0.95923   0.49474   0.0000000000
C          C       0.05868   0.92009   0.48185   0.0000000000
N          N       0.67320   0.31754   0.55214   0.0000000000
C          C       0.68580   0.28438   0.47042   0.0000000000
C          C       0.71780   0.26755   0.48684   0.0000000000
C          C       0.73997   0.28486   0.58496   0.0000000000
C          C       0.72869   0.23212   0.40215   0.0000000000
H          H       0.67094   0.26981   0.38912   0.0000000000
H          H       0.73317   0.31180   0.65283   0.0000000000
F          F       0.79108   0.28654   0.69468   0.0000000000
C          C       0.86299   0.12895   0.35431   0.0000000000
C          C       0.89177   0.10527   0.35667   0.0000000000
C          C       0.91548   0.11185   0.46247   0.0000000000
C          C       0.85646   0.16238   0.45259   0.0000000000
H          H       0.89487   0.07978   0.27797   0.0000000000
C          C       0.11895   0.82772   0.55141   0.0000000000
C          C       0.09017   0.85256   0.55640   0.0000000000
H          H       0.12217   0.80214   0.62929   0.0000000000
H          H       0.07344   0.84569   0.64133   0.0000000000
C          C       0.97396   0.09207   0.49286   0.0000000000
C          C       0.93312   0.03525   0.49123   0.0000000000
C          C       0.98388   0.13489   0.49337   0.0000000000
C          C       0.90183   0.02175   0.49911   0.0000000000
H          H       0.96952   0.16381   0.48479   0.0000000000
H          H       0.88037   0.04077   0.50526   0.0000000000
C          C       0.05868   0.07991   0.51815   0.0000000000
N          N       0.67320   0.68246   0.44786   0.0000000000
C          C       0.68580   0.71562   0.52958   0.0000000000
C          C       0.71780   0.73245   0.51316   0.0000000000
C          C       0.73997   0.71514   0.41503   0.0000000000
C          C       0.72869   0.76788   0.59785   0.0000000000
H          H       0.67094   0.73019   0.61087   0.0000000000
H          H       0.73317   0.68820   0.34717   0.0000000000
F          F       0.79108   0.71346   0.30532   0.0000000000
C          C       0.13701   0.87105   0.35431   0.0000000000
C          C       0.10823   0.89473   0.35667   0.0000000000
C          C       0.08452   0.88815   0.46247   0.0000000000
C          C       0.14354   0.83762   0.45259   0.0000000000
H          H       0.10513   0.92022   0.27797   0.0000000000
C          C       0.88105   0.17228   0.55141   0.0000000000
C          C       0.90983   0.14744   0.55640   0.0000000000
H          H       0.87783   0.19786   0.62929   0.0000000000
H          H       0.92656   0.15431   0.64133   0.0000000000
C          C       0.02604   0.90793   0.49286   0.0000000000
C          C       0.06688   0.96475   0.49123   0.0000000000
C          C       0.01612   0.86511   0.49337   0.0000000000
C          C       0.09817   0.97825   0.49911   0.0000000000
H          H       0.03048   0.83619   0.48479   0.0000000000
H          H       0.11963   0.95923   0.50526   0.0000000000
C          C       0.94132   0.92009   0.51815   0.0000000000
N          N       0.32680   0.31754   0.44786   0.0000000000
C          C       0.31420   0.28438   0.52958   0.0000000000
C          C       0.28220   0.26755   0.51316   0.0000000000
C          C       0.26003   0.28486   0.41503   0.0000000000
C          C       0.27131   0.23212   0.59785   0.0000000000
H          H       0.32906   0.26981   0.61087   0.0000000000
H          H       0.26683   0.31180   0.34717   0.0000000000
F          F       0.20892   0.28654   0.30532   0.0000000000
N          N       0.50000   0.56475   0.50000   0.0000000000
N          N       0.50000   0.43525   0.50000   0.0000000000
N          N      -0.00000   0.93525   0.50000   0.0000000000
N          N       0.00000   0.06475   0.50000   0.0000000000
N          N       0.45313   0.50000   0.50000   0.0000000000
N          N       0.54687   0.50000   0.50000   0.0000000000
N          N       0.04687   0.00000   0.50000   0.0000000000
N          N       0.95313   0.00000   0.50000   0.0000000000
Co         Co      0.50000   0.50000   0.50000   0.0000000000
Co         Co      0.00000   0.00000   0.50000   0.0000000000
