data_crystal
 
_cell_length_a    40.36810
_cell_length_b    31.49860
_cell_length_c    9.22880
_cell_angle_alpha 90.00000
_cell_angle_beta  90.00000
_cell_angle_gamma 90.00000
 
_space_group_name_Hall 'P 1'
_space_group_name_H-M_alt  'P 1'
 
loop_
_symmetry_equiv_pos_as_xyz
 'x,y,z' 
 
loop_
_atom_site_label
_atom_site_type_symbol
_atom_site_fract_x
_atom_site_fract_y
_atom_site_fract_z
C          C       0.36046   0.37266  -0.15917 
C          C       0.38931   0.39747  -0.15569 
C          C       0.41383   0.39156  -0.04836 
C          C       0.35549   0.33942  -0.06073 
H          H       0.34159   0.37983  -0.23899 
H          H       0.39179   0.42291  -0.23394 
C          C       0.59054   0.64324   0.04672 
H          H       0.62122   0.69454   0.11801 
H          H       0.57319   0.64871   0.13422 
F          F       0.26542   0.68138   0.17313 
N          N       0.17427   0.81834  -0.06415 
C          C       0.18492   0.78544   0.02015 
C          C       0.21737   0.76809   0.00809 
C          C       0.24153   0.78484  -0.08694 
C          C       0.22651   0.73295   0.09463 
H          H       0.16831   0.77185   0.09940 
F          F       0.20436   0.71546   0.18807 
C          C       0.47327   0.41068  -0.01377 
C          C       0.43975   0.42280  -0.02804 
C          C       0.43068   0.46588  -0.01454 
C          C       0.48349   0.36873  -0.01265 
C          C       0.39793   0.47877  -0.00532 
H          H       0.46902   0.34027  -0.02783 
H          H       0.37557   0.45998  -0.00334 
C          C       0.61895   0.66930   0.03951 
C          C       0.63954   0.62734  -0.15917 
C          C       0.61069   0.60253  -0.15569 
C          C       0.58617   0.60844  -0.04836 
C          C       0.64451   0.66058  -0.06073 
H          H       0.65841   0.62017  -0.23899 
H          H       0.60821   0.57709  -0.23394 
C          C       0.40946   0.35676   0.04672 
H          H       0.37878   0.30546   0.11801 
H          H       0.42681   0.35129   0.13422 
F          F       0.73458   0.31862   0.17313 
N          N       0.82573   0.18166  -0.06415 
C          C       0.81508   0.21456   0.02015 
C          C       0.78263   0.23191   0.00809 
C          C       0.75847   0.21516  -0.08694 
C          C       0.77349   0.26705   0.09463 
H          H       0.83169   0.22815   0.09940 
F          F       0.79564   0.28454   0.18807 
C          C       0.52673   0.58932  -0.01377 
C          C       0.56025   0.57720  -0.02804 
C          C       0.56932   0.53412  -0.01454 
C          C       0.51651   0.63127  -0.01265 
C          C       0.60207   0.52123  -0.00532 
H          H       0.53098   0.65973  -0.02783 
H          H       0.62443   0.54002  -0.00334 
C          C       0.38105   0.33070   0.03951 
C          C       0.63954   0.37266   0.15917 
C          C       0.61069   0.39747   0.15569 
C          C       0.58617   0.39156   0.04836 
C          C       0.64451   0.33942   0.06073 
H          H       0.65841   0.37983   0.23899 
H          H       0.60821   0.42291   0.23394 
C          C       0.40946   0.64324  -0.04672 
H          H       0.37878   0.69454  -0.11801 
H          H       0.42681   0.64871  -0.13422 
F          F       0.73458   0.68138  -0.17313 
N          N       0.82573   0.81834   0.06415 
C          C       0.81508   0.78544  -0.02015 
C          C       0.78263   0.76809  -0.00809 
C          C       0.75847   0.78484   0.08694 
C          C       0.77349   0.73295  -0.09463 
H          H       0.83169   0.77185  -0.09940 
F          F       0.79564   0.71546  -0.18807 
C          C       0.52673   0.41068   0.01377 
C          C       0.56025   0.42280   0.02804 
C          C       0.56932   0.46588   0.01454 
C          C       0.51651   0.36873   0.01265 
C          C       0.60207   0.47877   0.00532 
H          H       0.53098   0.34027   0.02783 
H          H       0.62443   0.45998   0.00334 
C          C       0.38105   0.66930  -0.03951 
C          C       0.36046   0.62734   0.15917 
C          C       0.38931   0.60253   0.15569 
C          C       0.41383   0.60844   0.04836 
C          C       0.35549   0.66058   0.06073 
H          H       0.34159   0.62017   0.23899 
H          H       0.39179   0.57709   0.23394 
C          C       0.59054   0.35676  -0.04672 
H          H       0.62122   0.30546  -0.11801 
H          H       0.57319   0.35129  -0.13422 
F          F       0.26542   0.31862  -0.17313 
N          N       0.17427   0.18166   0.06415 
C          C       0.18492   0.21456  -0.02015 
C          C       0.21737   0.23191  -0.00809 
C          C       0.24153   0.21516   0.08694 
C          C       0.22651   0.26705  -0.09463 
H          H       0.16831   0.22815  -0.09940 
F          F       0.20436   0.28454  -0.18807 
C          C       0.47327   0.58932   0.01377 
C          C       0.43975   0.57720   0.02804 
C          C       0.43068   0.53412   0.01454 
C          C       0.48349   0.63127   0.01265 
C          C       0.39793   0.52123   0.00532 
H          H       0.46902   0.65973   0.02783 
H          H       0.37557   0.54002   0.00334 
C          C       0.61895   0.33070  -0.03951 
C          C       0.13954   0.12734   0.15917 
C          C       0.11069   0.10253   0.15569 
C          C       0.08617   0.10844   0.04836 
C          C       0.14451   0.16058   0.06073 
H          H       0.15841   0.12017   0.23899 
H          H       0.10821   0.07709   0.23394 
C          C       0.90946   0.85676  -0.04672 
H          H       0.87878   0.80546  -0.11801 
H          H       0.92681   0.85129  -0.13422 
F          F       0.23458   0.81862  -0.17313 
N          N       0.32573   0.68166   0.06415 
C          C       0.31508   0.71456  -0.02015 
C          C       0.28263   0.73191  -0.00809 
C          C       0.25847   0.71516   0.08694 
C          C       0.27349   0.76705  -0.09463 
H          H       0.33169   0.72815  -0.09940 
F          F       0.29564   0.78454  -0.18807 
C          C       0.02673   0.08932   0.01377 
C          C       0.06025   0.07720   0.02804 
C          C       0.06932   0.03412   0.01454 
C          C       0.01651   0.13127   0.01265 
C          C       0.10207   0.02123   0.00532 
H          H       0.03098   0.15973   0.02783 
H          H       0.12443   0.04002   0.00334 
C          C       0.88105   0.83070  -0.03951 
C          C       0.86046   0.87266   0.15917 
C          C       0.88931   0.89747   0.15569 
C          C       0.91383   0.89156   0.04836 
C          C       0.85549   0.83942   0.06073 
H          H       0.84159   0.87983   0.23899 
H          H       0.89179   0.92291   0.23394 
C          C       0.09054   0.14324  -0.04672 
H          H       0.12122   0.19454  -0.11801 
H          H       0.07319   0.14871  -0.13422 
F          F       0.76542   0.18138  -0.17313 
N          N       0.67427   0.31834   0.06415 
C          C       0.68492   0.28544  -0.02015 
C          C       0.71737   0.26809  -0.00809 
C          C       0.74153   0.28484   0.08694 
C          C       0.72651   0.23295  -0.09463 
H          H       0.66831   0.27185  -0.09940 
F          F       0.70436   0.21546  -0.18807 
C          C       0.97327   0.91068   0.01377 
C          C       0.93975   0.92280   0.02804 
C          C       0.93068   0.96588   0.01454 
C          C       0.98349   0.86873   0.01265 
C          C       0.89793   0.97877   0.00532 
H          H       0.96902   0.84027   0.02783 
H          H       0.87557   0.95998   0.00334 
C          C       0.11895   0.16930  -0.03951 
C          C       0.86046   0.12734  -0.15917 
C          C       0.88931   0.10253  -0.15569 
C          C       0.91383   0.10844  -0.04836 
C          C       0.85549   0.16058  -0.06073 
H          H       0.84159   0.12017  -0.23899 
H          H       0.89179   0.07709  -0.23394 
C          C       0.09054   0.85676   0.04672 
H          H       0.12122   0.80546   0.11801 
H          H       0.07319   0.85129   0.13422 
F          F       0.76542   0.81862   0.17313 
N          N       0.67427   0.68166  -0.06415 
C          C       0.68492   0.71456   0.02015 
C          C       0.71737   0.73191   0.00809 
C          C       0.74153   0.71516  -0.08694 
C          C       0.72651   0.76705   0.09463 
H          H       0.66831   0.72815   0.09940 
F          F       0.70436   0.78454   0.18807 
C          C       0.97327   0.08932  -0.01377 
C          C       0.93975   0.07720  -0.02804 
C          C       0.93068   0.03412  -0.01454 
C          C       0.98349   0.13127  -0.01265 
C          C       0.89793   0.02123  -0.00532 
H          H       0.96902   0.15973  -0.02783 
H          H       0.87557   0.04002  -0.00334 
C          C       0.11895   0.83070   0.03951 
C          C       0.13954   0.87266  -0.15917 
C          C       0.11069   0.89747  -0.15569 
C          C       0.08617   0.89156  -0.04836 
C          C       0.14451   0.83942  -0.06073 
H          H       0.15841   0.87983  -0.23899 
H          H       0.10821   0.92291  -0.23394 
C          C       0.90946   0.14324   0.04672 
H          H       0.87878   0.19454   0.11801 
H          H       0.92681   0.14871   0.13422 
F          F       0.23458   0.18138   0.17313 
N          N       0.32573   0.31834  -0.06415 
C          C       0.31508   0.28544   0.02015 
C          C       0.28263   0.26809   0.00809 
C          C       0.25847   0.28484  -0.08694 
C          C       0.27349   0.23295   0.09463 
H          H       0.33169   0.27185   0.09940 
F          F       0.29564   0.21546   0.18807 
C          C       0.02673   0.91068  -0.01377 
C          C       0.06025   0.92280  -0.02804 
C          C       0.06932   0.96588  -0.01454 
C          C       0.01651   0.86873  -0.01265 
C          C       0.10207   0.97877  -0.00532 
H          H       0.03098   0.84027  -0.02783 
H          H       0.12443   0.95998  -0.00334 
C          C       0.88105   0.16930   0.03951 
N          N       0.50000   0.56273   0.00000 
N          N       0.50000   0.43727   0.00000 
N          N      -0.00000   0.93727   0.00000 
N          N      -0.00000   0.06273   0.00000 
N          N       0.45141   0.50000   0.00000 
N          N       0.54859   0.50000   0.00000 
N          N       0.04859   0.00000   0.00000 
N          N       0.95141   0.00000   0.00000 
Co         Co      0.50000   0.50000   0.00000 
Co         Co      0.00000   0.00000   0.00000 
C          C       0.36046   0.37266   0.34083 
C          C       0.38931   0.39747   0.34431 
C          C       0.41383   0.39156   0.45164 
C          C       0.35549   0.33942   0.43927 
H          H       0.34159   0.37983   0.26102 
H          H       0.39179   0.42291   0.26606 
C          C       0.59054   0.64324   0.54672 
H          H       0.62122   0.69454   0.61801 
H          H       0.57319   0.64871   0.63422 
F          F       0.26542   0.68138   0.67313 
N          N       0.17427   0.81834   0.43585 
C          C       0.18492   0.78544   0.52015 
C          C       0.21737   0.76809   0.50809 
C          C       0.24153   0.78484   0.41306 
C          C       0.22651   0.73295   0.59463 
H          H       0.16831   0.77185   0.59940 
F          F       0.20436   0.71546   0.68807 
C          C       0.47327   0.41068   0.48623 
C          C       0.43975   0.42280   0.47196 
C          C       0.43068   0.46588   0.48546 
C          C       0.48349   0.36873   0.48736 
C          C       0.39793   0.47877   0.49468 
H          H       0.46902   0.34027   0.47217 
H          H       0.37557   0.45998   0.49666 
C          C       0.61895   0.66930   0.53951 
C          C       0.63954   0.62734   0.34083 
C          C       0.61069   0.60253   0.34431 
C          C       0.58617   0.60844   0.45164 
C          C       0.64451   0.66058   0.43927 
H          H       0.65841   0.62017   0.26102 
H          H       0.60821   0.57709   0.26606 
C          C       0.40946   0.35676   0.54672 
H          H       0.37878   0.30546   0.61801 
H          H       0.42681   0.35129   0.63422 
F          F       0.73458   0.31862   0.67313 
N          N       0.82573   0.18166   0.43585 
C          C       0.81508   0.21456   0.52015 
C          C       0.78263   0.23191   0.50809 
C          C       0.75847   0.21516   0.41306 
C          C       0.77349   0.26705   0.59463 
H          H       0.83169   0.22815   0.59940 
F          F       0.79564   0.28454   0.68807 
C          C       0.52673   0.58932   0.48623 
C          C       0.56025   0.57720   0.47196 
C          C       0.56932   0.53412   0.48546 
C          C       0.51651   0.63127   0.48736 
C          C       0.60207   0.52123   0.49468 
H          H       0.53098   0.65973   0.47217 
H          H       0.62443   0.54002   0.49666 
C          C       0.38105   0.33070   0.53951 
C          C       0.63954   0.37266   0.65917 
C          C       0.61069   0.39747   0.65569 
C          C       0.58617   0.39156   0.54836 
C          C       0.64451   0.33942   0.56073 
H          H       0.65841   0.37983   0.73899 
H          H       0.60821   0.42291   0.73395 
C          C       0.40946   0.64324   0.45328 
H          H       0.37878   0.69454   0.38199 
H          H       0.42681   0.64871   0.36578 
F          F       0.73458   0.68138   0.32687 
N          N       0.82573   0.81834   0.56415 
C          C       0.81508   0.78544   0.47985 
C          C       0.78263   0.76809   0.49191 
C          C       0.75847   0.78484   0.58694 
C          C       0.77349   0.73295   0.40537 
H          H       0.83169   0.77185   0.40060 
F          F       0.79564   0.71546   0.31193 
C          C       0.52673   0.41068   0.51377 
C          C       0.56025   0.42280   0.52804 
C          C       0.56932   0.46588   0.51454 
C          C       0.51651   0.36873   0.51265 
C          C       0.60207   0.47877   0.50532 
H          H       0.53098   0.34027   0.52783 
H          H       0.62443   0.45998   0.50334 
C          C       0.38105   0.66930   0.46049 
C          C       0.36046   0.62734   0.65917 
C          C       0.38931   0.60253   0.65569 
C          C       0.41383   0.60844   0.54836 
C          C       0.35549   0.66058   0.56073 
H          H       0.34159   0.62017   0.73899 
H          H       0.39179   0.57709   0.73395 
C          C       0.59054   0.35676   0.45328 
H          H       0.62122   0.30546   0.38199 
H          H       0.57319   0.35129   0.36578 
F          F       0.26542   0.31862   0.32687 
N          N       0.17427   0.18166   0.56415 
C          C       0.18492   0.21456   0.47985 
C          C       0.21737   0.23191   0.49191 
C          C       0.24153   0.21516   0.58694 
C          C       0.22651   0.26705   0.40537 
H          H       0.16831   0.22815   0.40060 
F          F       0.20436   0.28454   0.31193 
C          C       0.47327   0.58932   0.51377 
C          C       0.43975   0.57720   0.52804 
C          C       0.43068   0.53412   0.51454 
C          C       0.48349   0.63127   0.51265 
C          C       0.39793   0.52123   0.50532 
H          H       0.46902   0.65973   0.52783 
H          H       0.37557   0.54002   0.50334 
C          C       0.61895   0.33070   0.46049 
C          C       0.13954   0.12734   0.65917 
C          C       0.11069   0.10253   0.65569 
C          C       0.08617   0.10844   0.54836 
C          C       0.14451   0.16058   0.56073 
H          H       0.15841   0.12017   0.73899 
H          H       0.10821   0.07709   0.73395 
C          C       0.90946   0.85676   0.45328 
H          H       0.87878   0.80546   0.38199 
H          H       0.92681   0.85129   0.36578 
F          F       0.23458   0.81862   0.32687 
N          N       0.32573   0.68166   0.56415 
C          C       0.31508   0.71456   0.47985 
C          C       0.28263   0.73191   0.49191 
C          C       0.25847   0.71516   0.58694 
C          C       0.27349   0.76705   0.40537 
H          H       0.33169   0.72815   0.40060 
F          F       0.29564   0.78454   0.31193 
C          C       0.02673   0.08932   0.51377 
C          C       0.06025   0.07720   0.52804 
C          C       0.06932   0.03412   0.51454 
C          C       0.01651   0.13127   0.51265 
C          C       0.10207   0.02123   0.50532 
H          H       0.03098   0.15973   0.52783 
H          H       0.12443   0.04002   0.50334 
C          C       0.88105   0.83070   0.46049 
C          C       0.86046   0.87266   0.65917 
C          C       0.88931   0.89747   0.65569 
C          C       0.91383   0.89156   0.54836 
C          C       0.85549   0.83942   0.56073 
H          H       0.84159   0.87983   0.73899 
H          H       0.89179   0.92291   0.73395 
C          C       0.09054   0.14324   0.45328 
H          H       0.12122   0.19454   0.38199 
H          H       0.07319   0.14871   0.36578 
F          F       0.76542   0.18138   0.32687 
N          N       0.67427   0.31834   0.56415 
C          C       0.68492   0.28544   0.47985 
C          C       0.71737   0.26809   0.49191 
C          C       0.74153   0.28484   0.58694 
C          C       0.72651   0.23295   0.40537 
H          H       0.66831   0.27185   0.40060 
F          F       0.70436   0.21546   0.31193 
C          C       0.97327   0.91068   0.51377 
C          C       0.93975   0.92280   0.52804 
C          C       0.93068   0.96588   0.51454 
C          C       0.98349   0.86873   0.51265 
C          C       0.89793   0.97877   0.50532 
H          H       0.96902   0.84027   0.52783 
H          H       0.87557   0.95998   0.50334 
C          C       0.11895   0.16930   0.46049 
C          C       0.86046   0.12734   0.34083 
C          C       0.88931   0.10253   0.34431 
C          C       0.91383   0.10844   0.45164 
C          C       0.85549   0.16058   0.43927 
H          H       0.84159   0.12017   0.26102 
H          H       0.89179   0.07709   0.26606 
C          C       0.09054   0.85676   0.54672 
H          H       0.12122   0.80546   0.61801 
H          H       0.07319   0.85129   0.63422 
F          F       0.76542   0.81862   0.67313 
N          N       0.67427   0.68166   0.43585 
C          C       0.68492   0.71456   0.52015 
C          C       0.71737   0.73191   0.50809 
C          C       0.74153   0.71516   0.41306 
C          C       0.72651   0.76705   0.59463 
H          H       0.66831   0.72815   0.59940 
F          F       0.70436   0.78454   0.68807 
C          C       0.97327   0.08932   0.48623 
C          C       0.93975   0.07720   0.47196 
C          C       0.93068   0.03412   0.48546 
C          C       0.98349   0.13127   0.48736 
C          C       0.89793   0.02123   0.49468 
H          H       0.96902   0.15973   0.47217 
H          H       0.87557   0.04002   0.49666 
C          C       0.11895   0.83070   0.53951 
C          C       0.13954   0.87266   0.34083 
C          C       0.11069   0.89747   0.34431 
C          C       0.08617   0.89156   0.45164 
C          C       0.14451   0.83942   0.43927 
H          H       0.15841   0.87983   0.26102 
H          H       0.10821   0.92291   0.26606 
C          C       0.90946   0.14324   0.54672 
H          H       0.87878   0.19454   0.61801 
H          H       0.92681   0.14871   0.63422 
F          F       0.23458   0.18138   0.67313 
N          N       0.32573   0.31834   0.43585 
C          C       0.31508   0.28544   0.52015 
C          C       0.28263   0.26809   0.50809 
C          C       0.25847   0.28484   0.41306 
C          C       0.27349   0.23295   0.59463 
H          H       0.33169   0.27185   0.59940 
F          F       0.29564   0.21546   0.68807 
C          C       0.02673   0.91068   0.48623 
C          C       0.06025   0.92280   0.47196 
C          C       0.06932   0.96588   0.48546 
C          C       0.01651   0.86873   0.48736 
C          C       0.10207   0.97877   0.49468 
H          H       0.03098   0.84027   0.47217 
H          H       0.12443   0.95998   0.49666 
C          C       0.88105   0.16930   0.53951 
N          N       0.50000   0.56273   0.50000 
N          N       0.50000   0.43727   0.50000 
N          N      -0.00000   0.93727   0.50000 
N          N      -0.00000   0.06273   0.50000 
N          N       0.45141   0.50000   0.50000 
N          N       0.54859   0.50000   0.50000 
N          N       0.04859   0.00000   0.50000 
N          N       0.95141   0.00000   0.50000 
Co         Co      0.50000   0.50000   0.50000 
Co         Co      0.00000   0.00000   0.50000 
