data_crystal

_cell_length_a    44.75370
_cell_length_b    30.29370
_cell_length_c    9.35140
_cell_angle_alpha 90.00000
_cell_angle_beta  90.00000
_cell_angle_gamma 90.00000

_space_group_name_Hall 'P 1'
_space_group_name_H-M_alt  'P 1'

loop_
_symmetry_equiv_pos_as_xyz
'x,y,z' 

loop_
_atom_site_label
_atom_site_type_symbol
_atom_site_fract_x
_atom_site_fract_y
_atom_site_fract_z
C          C       0.47489   0.40548   0.24691 
C          C       0.44326   0.41751   0.23864 
C          C       0.43626   0.46375   0.24540 
C          C       0.48458   0.36207   0.24710 
C          C       0.40692   0.47793   0.25282 
H          H       0.47075   0.33283   0.24319 
H          H       0.38661   0.45904   0.26343 
C          C       0.36563   0.37042   0.11711 
C          C       0.39404   0.39275   0.11819 
C          C       0.41721   0.38517   0.22129 
C          C       0.35766   0.33632   0.21407 
C          C       0.61860   0.67487   0.31101 
C          C       0.58990   0.65134   0.31410 
H          H       0.34938   0.38047   0.03763 
H          H       0.39738   0.41832   0.03872 
H          H       0.62228   0.70087   0.38841 
H          H       0.57405   0.66022   0.39673 
N          N       0.32833   0.31732   0.20746 
C          C       0.31346   0.28347   0.28313 
C          C       0.28176   0.26720   0.26449 
C          C       0.26052   0.28552   0.16822 
C          C       0.27030   0.23047   0.34652 
H          H       0.32658   0.26693   0.36420 
O          O       0.29059   0.21051   0.44269 
C          C       0.21734   0.66960   0.50821 
H          H       0.26825   0.31288   0.10411 
H          H       0.23675   0.67388   0.58071 
H          H       0.22210   0.64421   0.42543 
H          H       0.19824   0.65802   0.57392 
C          C       0.52511   0.59452   0.24691 
C          C       0.55674   0.58249   0.23864 
C          C       0.56374   0.53625   0.24540 
C          C       0.51542   0.63793   0.24710 
C          C       0.59308   0.52207   0.25282 
H          H       0.52925   0.66717   0.24319 
H          H       0.61339   0.54096   0.26343 
C          C       0.63437   0.62958   0.11711 
C          C       0.60596   0.60725   0.11819 
C          C       0.58279   0.61483   0.22129 
C          C       0.64234   0.66368   0.21407 
C          C       0.38140   0.32513   0.31101 
C          C       0.41010   0.34866   0.31410 
H          H       0.65062   0.61953   0.03763 
H          H       0.60262   0.58168   0.03872 
H          H       0.37772   0.29913   0.38841 
H          H       0.42595   0.33978   0.39673 
N          N       0.67167   0.68268   0.20746 
C          C       0.68654   0.71653   0.28313 
C          C       0.71824   0.73280   0.26449 
C          C       0.73948   0.71448   0.16822 
C          C       0.72970   0.76953   0.34652 
H          H       0.67342   0.73307   0.36420 
O          O       0.70941   0.78949   0.44269 
C          C       0.78266   0.33040   0.50821 
H          H       0.73175   0.68712   0.10411 
H          H       0.76325   0.32612   0.58071 
H          H       0.77790   0.35579   0.42543 
H          H       0.80176   0.34198   0.57392 
C          C       0.52511   0.40548   0.25309 
C          C       0.55674   0.41751   0.26136 
C          C       0.56374   0.46375   0.25460 
C          C       0.51542   0.36207   0.25290 
C          C       0.59308   0.47793   0.24718 
H          H       0.52925   0.33283   0.25681 
H          H       0.61339   0.45904   0.23657 
C          C       0.63437   0.37042   0.38288 
C          C       0.60596   0.39275   0.38180 
C          C       0.58279   0.38517   0.27870 
C          C       0.64234   0.33632   0.28593 
C          C       0.38140   0.67487   0.18899 
C          C       0.41010   0.65134   0.18590 
H          H       0.65062   0.38047   0.46237 
H          H       0.60262   0.41832   0.46128 
H          H       0.37772   0.70087   0.11159 
H          H       0.42595   0.66022   0.10327 
N          N       0.67167   0.31732   0.29253 
C          C       0.68654   0.28347   0.21688 
C          C       0.71824   0.26720   0.23550 
C          C       0.73948   0.28552   0.33177 
C          C       0.72970   0.23047   0.15349 
H          H       0.67342   0.26693   0.13580 
O          O       0.70941   0.21051   0.05731 
C          C       0.78266   0.66960  -0.00821 
H          H       0.73175   0.31288   0.39588 
H          H       0.76325   0.67388  -0.08071 
H          H       0.77790   0.64421   0.07457 
H          H       0.80176   0.65802  -0.07392 
C          C       0.47489   0.59452   0.25309 
C          C       0.44326   0.58249   0.26136 
C          C       0.43626   0.53625   0.25460 
C          C       0.48458   0.63793   0.25290 
C          C       0.40692   0.52207   0.24718 
H          H       0.47075   0.66717   0.25681 
H          H       0.38661   0.54096   0.23657 
C          C       0.36563   0.62958   0.38288 
C          C       0.39404   0.60725   0.38180 
C          C       0.41721   0.61483   0.27870 
C          C       0.35766   0.66368   0.28593 
C          C       0.61860   0.32513   0.18899 
C          C       0.58990   0.34866   0.18590 
H          H       0.34938   0.61953   0.46237 
H          H       0.39738   0.58168   0.46128 
H          H       0.62228   0.29913   0.11159 
H          H       0.57405   0.33978   0.10327 
N          N       0.32833   0.68268   0.29253 
C          C       0.31346   0.71653   0.21688 
C          C       0.28176   0.73280   0.23550 
C          C       0.26052   0.71448   0.33177 
C          C       0.27030   0.76953   0.15349 
H          H       0.32658   0.73307   0.13580 
O          O       0.29059   0.78949   0.05731 
C          C       0.21734   0.33040  -0.00821 
H          H       0.26825   0.68712   0.39588 
H          H       0.23675   0.32612  -0.08071 
H          H       0.22210   0.35579   0.07457 
H          H       0.19824   0.34198  -0.07392 
C          C       0.02511   0.09452   0.25309 
C          C       0.05674   0.08249   0.26136 
C          C       0.06374   0.03625   0.25460 
C          C       0.01542   0.13793   0.25290 
C          C       0.09308   0.02207   0.24718 
H          H       0.02925   0.16717   0.25681 
H          H       0.11339   0.04096   0.23657 
C          C       0.13437   0.12958   0.38288 
C          C       0.10596   0.10725   0.38180 
C          C       0.08279   0.11483   0.27870 
C          C       0.14234   0.16368   0.28593 
C          C       0.88140   0.82513   0.18899 
C          C       0.91010   0.84866   0.18590 
H          H       0.15062   0.11953   0.46237 
H          H       0.10262   0.08168   0.46128 
H          H       0.87772   0.79913   0.11159 
H          H       0.92595   0.83978   0.10327 
N          N       0.17167   0.18268   0.29253 
C          C       0.18654   0.21653   0.21688 
C          C       0.21824   0.23280   0.23550 
C          C       0.23948   0.21448   0.33177 
C          C       0.22970   0.26953   0.15349 
H          H       0.17342   0.23307   0.13580 
O          O       0.20941   0.28949   0.05731 
C          C       0.28266   0.83040  -0.00821 
H          H       0.23175   0.18712   0.39588 
H          H       0.26325   0.82612  -0.08071 
H          H       0.27790   0.85579   0.07457 
H          H       0.30176   0.84198  -0.07392 
C          C       0.97489   0.90548   0.25309 
C          C       0.94326   0.91751   0.26136 
C          C       0.93626   0.96375   0.25460 
C          C       0.98458   0.86207   0.25290 
C          C       0.90692   0.97793   0.24718 
H          H       0.97075   0.83283   0.25681 
H          H       0.88661   0.95904   0.23657 
C          C       0.86563   0.87042   0.38288 
C          C       0.89404   0.89275   0.38180 
C          C       0.91721   0.88517   0.27870 
C          C       0.85766   0.83632   0.28593 
C          C       0.11860   0.17487   0.18899 
C          C       0.08990   0.15134   0.18590 
H          H       0.84938   0.88047   0.46237 
H          H       0.89738   0.91832   0.46128 
H          H       0.12228   0.20087   0.11159 
H          H       0.07405   0.16022   0.10327 
N          N       0.82833   0.81732   0.29253 
C          C       0.81346   0.78347   0.21688 
C          C       0.78176   0.76720   0.23550 
C          C       0.76052   0.78552   0.33177 
C          C       0.77030   0.73047   0.15349 
H          H       0.82658   0.76693   0.13580 
O          O       0.79059   0.71051   0.05731 
C          C       0.71734   0.16960  -0.00821 
H          H       0.76825   0.81288   0.39588 
H          H       0.73675   0.17388  -0.08071 
H          H       0.72210   0.14421   0.07457 
H          H       0.69824   0.15802  -0.07392 
C          C       0.97489   0.09452   0.24691 
C          C       0.94326   0.08249   0.23864 
C          C       0.93626   0.03625   0.24540 
C          C       0.98458   0.13793   0.24710 
C          C       0.90692   0.02207   0.25282 
H          H       0.97075   0.16717   0.24319 
H          H       0.88661   0.04096   0.26343 
C          C       0.86563   0.12958   0.11711 
C          C       0.89404   0.10725   0.11819 
C          C       0.91721   0.11483   0.22129 
C          C       0.85766   0.16368   0.21407 
C          C       0.11860   0.82513   0.31101 
C          C       0.08990   0.84866   0.31410 
H          H       0.84938   0.11953   0.03763 
H          H       0.89738   0.08168   0.03872 
H          H       0.12228   0.79913   0.38841 
H          H       0.07405   0.83978   0.39673 
N          N       0.82833   0.18268   0.20746 
C          C       0.81346   0.21653   0.28313 
C          C       0.78176   0.23280   0.26449 
C          C       0.76052   0.21448   0.16822 
C          C       0.77030   0.26953   0.34652 
H          H       0.82658   0.23307   0.36420 
O          O       0.79059   0.28949   0.44269 
C          C       0.71734   0.83040   0.50821 
H          H       0.76825   0.18712   0.10411 
H          H       0.73675   0.82612   0.58071 
H          H       0.72210   0.85579   0.42543 
H          H       0.69824   0.84198   0.57392 
C          C       0.02511   0.90548   0.24691 
C          C       0.05674   0.91751   0.23864 
C          C       0.06374   0.96375   0.24540 
C          C       0.01542   0.86207   0.24710 
C          C       0.09308   0.97793   0.25282 
H          H       0.02925   0.83283   0.24319 
H          H       0.11339   0.95904   0.26343 
C          C       0.13437   0.87042   0.11711 
C          C       0.10596   0.89275   0.11819 
C          C       0.08279   0.88517   0.22129 
C          C       0.14234   0.83632   0.21407 
C          C       0.88140   0.17487   0.31101 
C          C       0.91010   0.15134   0.31410 
H          H       0.15062   0.88047   0.03763 
H          H       0.10262   0.91832   0.03872 
H          H       0.87772   0.20087   0.38841 
H          H       0.92595   0.16022   0.39673 
N          N       0.17167   0.81732   0.20746 
C          C       0.18654   0.78347   0.28313 
C          C       0.21824   0.76720   0.26449 
C          C       0.23948   0.78552   0.16822 
C          C       0.22970   0.73047   0.34652 
H          H       0.17342   0.76693   0.36420 
O          O       0.20941   0.71051   0.44269 
C          C       0.28266   0.16960   0.50821 
H          H       0.23175   0.81288   0.10411 
H          H       0.26325   0.17388   0.58071 
H          H       0.27790   0.14421   0.42543 
H          H       0.30176   0.15802   0.57392 
N          N       0.50000   0.56665   0.25000 
N          N       0.50000   0.43335   0.25000 
N          N       0.00000   0.93335   0.25000 
N          N       0.00000   0.06665   0.25000 
N          N       0.45533   0.50000   0.25000 
N          N       0.54467   0.50000   0.25000 
N          N       0.04467   0.00000   0.25000 
N          N       0.95533   0.00000   0.25000 
Co         Co      0.50000   0.50000   0.25000 
Co         Co      0.00000   0.00000   0.25000 
C          C       0.47489   0.40548   0.74691 
C          C       0.44326   0.41751   0.73864 
C          C       0.43626   0.46375   0.74540 
C          C       0.48458   0.36207   0.74709 
C          C       0.40692   0.47793   0.75282 
H          H       0.47075   0.33283   0.74319 
H          H       0.38661   0.45904   0.76343 
C          C       0.36563   0.37042   0.61711 
C          C       0.39404   0.39275   0.61819 
C          C       0.41721   0.38517   0.72129 
C          C       0.35766   0.33632   0.71407 
C          C       0.61860   0.67487   0.81101 
C          C       0.58990   0.65134   0.81410 
H          H       0.34938   0.38047   0.53763 
H          H       0.39738   0.41832   0.53872 
H          H       0.62228   0.70087   0.88841 
H          H       0.57405   0.66022   0.89673 
N          N       0.32833   0.31732   0.70747 
C          C       0.31346   0.28347   0.78313 
C          C       0.28176   0.26720   0.76449 
C          C       0.26052   0.28552   0.66822 
C          C       0.27030   0.23047   0.84652 
H          H       0.32658   0.26693   0.86420 
O          O       0.29059   0.21051   0.94269 
C          C       0.21734   0.66960   1.00821 
H          H       0.26825   0.31288   0.60411 
H          H       0.23675   0.67388   1.08071 
H          H       0.22210   0.64421   0.92543 
H          H       0.19824   0.65802   1.07392 
C          C       0.52511   0.59452   0.74691 
C          C       0.55674   0.58249   0.73864 
C          C       0.56374   0.53625   0.74540 
C          C       0.51542   0.63793   0.74709 
C          C       0.59308   0.52207   0.75282 
H          H       0.52925   0.66717   0.74319 
H          H       0.61339   0.54096   0.76343 
C          C       0.63437   0.62958   0.61711 
C          C       0.60596   0.60725   0.61819 
C          C       0.58279   0.61483   0.72129 
C          C       0.64234   0.66368   0.71407 
C          C       0.38140   0.32513   0.81101 
C          C       0.41010   0.34866   0.81410 
H          H       0.65062   0.61953   0.53763 
H          H       0.60262   0.58168   0.53872 
H          H       0.37772   0.29913   0.88841 
H          H       0.42595   0.33978   0.89673 
N          N       0.67167   0.68268   0.70747 
C          C       0.68654   0.71653   0.78313 
C          C       0.71824   0.73280   0.76449 
C          C       0.73948   0.71448   0.66822 
C          C       0.72970   0.76953   0.84652 
H          H       0.67342   0.73307   0.86420 
O          O       0.70941   0.78949   0.94269 
C          C       0.78266   0.33040   1.00821 
H          H       0.73175   0.68712   0.60411 
H          H       0.76325   0.32612   1.08071 
H          H       0.77790   0.35579   0.92543 
H          H       0.80176   0.34198   1.07392 
C          C       0.52511   0.40548   0.75309 
C          C       0.55674   0.41751   0.76136 
C          C       0.56374   0.46375   0.75460 
C          C       0.51542   0.36207   0.75290 
C          C       0.59308   0.47793   0.74718 
H          H       0.52925   0.33283   0.75681 
H          H       0.61339   0.45904   0.73657 
C          C       0.63437   0.37042   0.88289 
C          C       0.60596   0.39275   0.88181 
C          C       0.58279   0.38517   0.77870 
C          C       0.64234   0.33632   0.78593 
C          C       0.38140   0.67487   0.68899 
C          C       0.41010   0.65134   0.68590 
H          H       0.65062   0.38047   0.96237 
H          H       0.60262   0.41832   0.96128 
H          H       0.37772   0.70087   0.61159 
H          H       0.42595   0.66022   0.60327 
N          N       0.67167   0.31732   0.79253 
C          C       0.68654   0.28347   0.71688 
C          C       0.71824   0.26720   0.73550 
C          C       0.73948   0.28552   0.83177 
C          C       0.72970   0.23047   0.65348 
H          H       0.67342   0.26693   0.63580 
O          O       0.70941   0.21051   0.55731 
C          C       0.78266   0.66960   0.49178 
H          H       0.73175   0.31288   0.89588 
H          H       0.76325   0.67388   0.41928 
H          H       0.77790   0.64421   0.57457 
H          H       0.80176   0.65802   0.42608 
C          C       0.47489   0.59452   0.75309 
C          C       0.44326   0.58249   0.76136 
C          C       0.43626   0.53625   0.75460 
C          C       0.48458   0.63793   0.75290 
C          C       0.40692   0.52207   0.74718 
H          H       0.47075   0.66717   0.75681 
H          H       0.38661   0.54096   0.73657 
C          C       0.36563   0.62958   0.88289 
C          C       0.39404   0.60725   0.88181 
C          C       0.41721   0.61483   0.77870 
C          C       0.35766   0.66368   0.78593 
C          C       0.61860   0.32513   0.68899 
C          C       0.58990   0.34866   0.68590 
H          H       0.34938   0.61953   0.96237 
H          H       0.39738   0.58168   0.96128 
H          H       0.62228   0.29913   0.61159 
H          H       0.57405   0.33978   0.60327 
N          N       0.32833   0.68268   0.79253 
C          C       0.31346   0.71653   0.71688 
C          C       0.28176   0.73280   0.73550 
C          C       0.26052   0.71448   0.83177 
C          C       0.27030   0.76953   0.65348 
H          H       0.32658   0.73307   0.63580 
O          O       0.29059   0.78949   0.55731 
C          C       0.21734   0.33040   0.49178 
H          H       0.26825   0.68712   0.89588 
H          H       0.23675   0.32612   0.41928 
H          H       0.22210   0.35579   0.57457 
H          H       0.19824   0.34198   0.42608 
C          C       0.02511   0.09452   0.75309 
C          C       0.05674   0.08249   0.76136 
C          C       0.06374   0.03625   0.75460 
C          C       0.01542   0.13793   0.75290 
C          C       0.09308   0.02207   0.74718 
H          H       0.02925   0.16717   0.75681 
H          H       0.11339   0.04096   0.73657 
C          C       0.13437   0.12958   0.88289 
C          C       0.10596   0.10725   0.88181 
C          C       0.08279   0.11483   0.77870 
C          C       0.14234   0.16368   0.78593 
C          C       0.88140   0.82513   0.68899 
C          C       0.91010   0.84866   0.68590 
H          H       0.15062   0.11953   0.96237 
H          H       0.10262   0.08168   0.96128 
H          H       0.87772   0.79913   0.61159 
H          H       0.92595   0.83978   0.60327 
N          N       0.17167   0.18268   0.79253 
C          C       0.18654   0.21653   0.71688 
C          C       0.21824   0.23280   0.73550 
C          C       0.23948   0.21448   0.83177 
C          C       0.22970   0.26953   0.65348 
H          H       0.17342   0.23307   0.63580 
O          O       0.20941   0.28949   0.55731 
C          C       0.28266   0.83040   0.49178 
H          H       0.23175   0.18712   0.89588 
H          H       0.26325   0.82612   0.41928 
H          H       0.27790   0.85579   0.57457 
H          H       0.30176   0.84198   0.42608 
C          C       0.97489   0.90548   0.75309 
C          C       0.94326   0.91751   0.76136 
C          C       0.93626   0.96375   0.75460 
C          C       0.98458   0.86207   0.75290 
C          C       0.90692   0.97793   0.74718 
H          H       0.97075   0.83283   0.75681 
H          H       0.88661   0.95904   0.73657 
C          C       0.86563   0.87042   0.88289 
C          C       0.89404   0.89275   0.88181 
C          C       0.91721   0.88517   0.77870 
C          C       0.85766   0.83632   0.78593 
C          C       0.11860   0.17487   0.68899 
C          C       0.08990   0.15134   0.68590 
H          H       0.84938   0.88047   0.96237 
H          H       0.89738   0.91832   0.96128 
H          H       0.12228   0.20087   0.61159 
H          H       0.07405   0.16022   0.60327 
N          N       0.82833   0.81732   0.79253 
C          C       0.81346   0.78347   0.71688 
C          C       0.78176   0.76720   0.73550 
C          C       0.76052   0.78552   0.83177 
C          C       0.77030   0.73047   0.65348 
H          H       0.82658   0.76693   0.63580 
O          O       0.79059   0.71051   0.55731 
C          C       0.71734   0.16960   0.49178 
H          H       0.76825   0.81288   0.89588 
H          H       0.73675   0.17388   0.41928 
H          H       0.72210   0.14421   0.57457 
H          H       0.69824   0.15802   0.42608 
C          C       0.97489   0.09452   0.74691 
C          C       0.94326   0.08249   0.73864 
C          C       0.93626   0.03625   0.74540 
C          C       0.98458   0.13793   0.74709 
C          C       0.90692   0.02207   0.75282 
H          H       0.97075   0.16717   0.74319 
H          H       0.88661   0.04096   0.76343 
C          C       0.86563   0.12958   0.61711 
C          C       0.89404   0.10725   0.61819 
C          C       0.91721   0.11483   0.72129 
C          C       0.85766   0.16368   0.71407 
C          C       0.11860   0.82513   0.81101 
C          C       0.08990   0.84866   0.81410 
H          H       0.84938   0.11953   0.53763 
H          H       0.89738   0.08168   0.53872 
H          H       0.12228   0.79913   0.88841 
H          H       0.07405   0.83978   0.89673 
N          N       0.82833   0.18268   0.70747 
C          C       0.81346   0.21653   0.78313 
C          C       0.78176   0.23280   0.76449 
C          C       0.76052   0.21448   0.66822 
C          C       0.77030   0.26953   0.84652 
H          H       0.82658   0.23307   0.86420 
O          O       0.79059   0.28949   0.94269 
C          C       0.71734   0.83040   1.00821 
H          H       0.76825   0.18712   0.60411 
H          H       0.73675   0.82612   1.08071 
H          H       0.72210   0.85579   0.92543 
H          H       0.69824   0.84198   1.07392 
C          C       0.02511   0.90548   0.74691 
C          C       0.05674   0.91751   0.73864 
C          C       0.06374   0.96375   0.74540 
C          C       0.01542   0.86207   0.74709 
C          C       0.09308   0.97793   0.75282 
H          H       0.02925   0.83283   0.74319 
H          H       0.11339   0.95904   0.76343 
C          C       0.13437   0.87042   0.61711 
C          C       0.10596   0.89275   0.61819 
C          C       0.08279   0.88517   0.72129 
C          C       0.14234   0.83632   0.71407 
C          C       0.88140   0.17487   0.81101 
C          C       0.91010   0.15134   0.81410 
H          H       0.15062   0.88047   0.53763 
H          H       0.10262   0.91832   0.53872 
H          H       0.87772   0.20087   0.88841 
H          H       0.92595   0.16022   0.89673 
N          N       0.17167   0.81732   0.70747 
C          C       0.18654   0.78347   0.78313 
C          C       0.21824   0.76720   0.76449 
C          C       0.23948   0.78552   0.66822 
C          C       0.22970   0.73047   0.84652 
H          H       0.17342   0.76693   0.86420 
O          O       0.20941   0.71051   0.94269 
C          C       0.28266   0.16960   1.00821 
H          H       0.23175   0.81288   0.60411 
H          H       0.26325   0.17388   1.08071 
H          H       0.27790   0.14421   0.92543 
H          H       0.30176   0.15802   1.07392 
N          N       0.50000   0.56665   0.75000 
N          N       0.50000   0.43335   0.75000 
N          N       0.00000   0.93335   0.75000 
N          N       0.00000   0.06665   0.75000 
N          N       0.45533   0.50000   0.75000 
N          N       0.54467   0.50000   0.75000 
N          N       0.04467   0.00000   0.75000 
N          N       0.95533   0.00000   0.75000 
Co         Co      0.50000   0.50000   0.75000 
Co         Co      0.00000   0.00000   0.75000 
