data_PI-COF-5-2P
_audit_creation_date              0000-00-00
_audit_creation_method            'LanYouShi'
_symmetry_space_group_name_H-M    'P1'
_cell_length_a                    20.3899994
_cell_length_b                    20.3899994
_cell_length_c                    23.0900002
_cell_angle_alpha                 90.0000000
_cell_angle_beta                  90.0000000
_cell_angle_gamma                 90.0000000
loop_
_atom_site_label
_atom_site_type_symbol
_atom_site_fract_x
_atom_site_fract_y
_atom_site_fract_z
_atom_site_U_iso_or_equiv
_atom_site_adp_type
_atom_site_occupancy
        C1          C  0.8811700  0.1192900  0.6177700    0.00000       Uiso       1.00
        C2          C  0.7988500  0.1355500  0.6982500    0.00000       Uiso       1.00
        C3          C  0.7687901  0.1897800  0.7294801    0.00000       Uiso       1.00
        C4          C  0.8405601  0.2255100  0.6611600    0.00000       Uiso       1.00
        C5          C  0.7951000  0.2465300  0.7060801    0.00000       Uiso       1.00
        C6          C  0.7225600  0.1908100  0.7744099    0.00000       Uiso       1.00
        C7          C  0.1222000  0.9494001  0.6186500    0.00000       Uiso       1.00
        C8          C  0.0425299  0.9570801  0.5401400    0.00000       Uiso       1.00
        C9          C  0.0845300  0.9870100  0.5806300    0.00000       Uiso       1.00
       C10          C  0.0764199  0.8507001  0.5779500    0.00000       Uiso       1.00
       C11          C  0.0387000  0.8882400  0.5399100    0.00000       Uiso       1.00
        O1          O  0.7873800  0.0777700  0.7072100    0.00000       Uiso       1.00
        O2          O  0.8729800  0.2624100  0.6310700    0.00000       Uiso       1.00
        N1          N  0.8420400  0.1582700  0.6571900    0.00000       Uiso       1.00
        H1          H  0.7022400  0.1428400  0.7923200    0.00000       Uiso       1.00
        H2          H  0.1560100  0.9752001  0.6506900    0.00000       Uiso       1.00
        H3          H  0.0875200  0.0428100  0.5821100    0.00000       Uiso       1.00
        H4          H  0.0724200  0.7949700  0.5763700    0.00000       Uiso       1.00
        H5          H  0.0041699  0.8631300  0.5080400    0.00000       Uiso       1.00
       C12          C  0.1188300  0.8807100  0.6177700    0.00000       Uiso       1.00
       C13          C  0.2011500  0.8644500  0.6982500    0.00000       Uiso       1.00
       C14          C  0.2312100  0.8102200  0.7294801    0.00000       Uiso       1.00
       C15          C  0.1594400  0.7744900  0.6611600    0.00000       Uiso       1.00
       C16          C  0.2049000  0.7534701  0.7060801    0.00000       Uiso       1.00
       C17          C  0.2774400  0.8091900  0.7744099    0.00000       Uiso       1.00
       C18          C  0.8778000  0.0506000  0.6186500    0.00000       Uiso       1.00
       C19          C  0.9574701  0.0429200  0.5401400    0.00000       Uiso       1.00
       C20          C  0.9154700  0.0129900  0.5806300    0.00000       Uiso       1.00
       C21          C  0.9235801  0.1493000  0.5779500    0.00000       Uiso       1.00
       C22          C  0.9613000  0.1117600  0.5399100    0.00000       Uiso       1.00
        O3          O  0.2126200  0.9222300  0.7072100    0.00000       Uiso       1.00
        O4          O  0.1270200  0.7375900  0.6310700    0.00000       Uiso       1.00
        N2          N  0.1579600  0.8417300  0.6571900    0.00000       Uiso       1.00
        H6          H  0.2977600  0.8571601  0.7923200    0.00000       Uiso       1.00
        H7          H  0.8439900  0.0248000  0.6506900    0.00000       Uiso       1.00
        H8          H  0.9124800  0.9571901  0.5821100    0.00000       Uiso       1.00
        H9          H  0.9275801  0.2050300  0.5763700    0.00000       Uiso       1.00
       H10          H  0.9958301  0.1368700  0.5080400    0.00000       Uiso       1.00
       C23          C  0.3807100  0.3811700  0.1177700    0.00000       Uiso       1.00
       C24          C  0.3644500  0.2988500  0.1982500    0.00000       Uiso       1.00
       C25          C  0.3102200  0.2687900  0.2294800    0.00000       Uiso       1.00
       C26          C  0.2744900  0.3405600  0.1611600    0.00000       Uiso       1.00
       C27          C  0.2534700  0.2951000  0.2060800    0.00000       Uiso       1.00
       C28          C  0.3091900  0.2225600  0.2744100    0.00000       Uiso       1.00
       C29          C  0.5506001  0.6222000  0.1186500    0.00000       Uiso       1.00
       C30          C  0.5429200  0.5425299  0.0401400    0.00000       Uiso       1.00
       C31          C  0.5129901  0.5845300  0.0806300    0.00000       Uiso       1.00
       C32          C  0.6493000  0.5764199  0.0779500    0.00000       Uiso       1.00
       C33          C  0.6117600  0.5387000  0.0399100    0.00000       Uiso       1.00
        O5          O  0.4222300  0.2873800  0.2072100    0.00000       Uiso       1.00
        O6          O  0.2375900  0.3729800  0.1310700    0.00000       Uiso       1.00
        N3          N  0.3417300  0.3420400  0.1571900    0.00000       Uiso       1.00
       H11          H  0.3571600  0.2022400  0.2923200    0.00000       Uiso       1.00
       H12          H  0.5248000  0.6560100  0.1506900    0.00000       Uiso       1.00
       H13          H  0.4571900  0.5875201  0.0821100    0.00000       Uiso       1.00
       H14          H  0.7050300  0.5724201  0.0763700    0.00000       Uiso       1.00
       H15          H  0.6368700  0.5041700  0.0080400    0.00000       Uiso       1.00
       C34          C  0.6192900  0.6188300  0.1177700    0.00000       Uiso       1.00
       C35          C  0.6355500  0.7011501  0.1982500    0.00000       Uiso       1.00
       C36          C  0.6897800  0.7312100  0.2294800    0.00000       Uiso       1.00
       C37          C  0.7255100  0.6594400  0.1611600    0.00000       Uiso       1.00
       C38          C  0.7465300  0.7049000  0.2060800    0.00000       Uiso       1.00
       C39          C  0.6908100  0.7774401  0.2744100    0.00000       Uiso       1.00
       C40          C  0.4494000  0.3778000  0.1186500    0.00000       Uiso       1.00
       C41          C  0.4570800  0.4574701  0.0401400    0.00000       Uiso       1.00
       C42          C  0.4870100  0.4154700  0.0806300    0.00000       Uiso       1.00
       C43          C  0.3507001  0.4235801  0.0779500    0.00000       Uiso       1.00
       C44          C  0.3882400  0.4613000  0.0399100    0.00000       Uiso       1.00
        O7          O  0.5777700  0.7126200  0.2072100    0.00000       Uiso       1.00
        O8          O  0.7624100  0.6270200  0.1310700    0.00000       Uiso       1.00
        N4          N  0.6582700  0.6579600  0.1571900    0.00000       Uiso       1.00
       H16          H  0.6428400  0.7977601  0.2923200    0.00000       Uiso       1.00
       H17          H  0.4752000  0.3439900  0.1506900    0.00000       Uiso       1.00
       H18          H  0.5428100  0.4124800  0.0821100    0.00000       Uiso       1.00
       H19          H  0.2949700  0.4275800  0.0763700    0.00000       Uiso       1.00
       H20          H  0.3631300  0.4958301  0.0080400    0.00000       Uiso       1.00
       C45          C  0.6188300  0.3807100  0.8822299    0.00000       Uiso       1.00
       C46          C  0.7011501  0.3644500  0.8017500    0.00000       Uiso       1.00
       C47          C  0.7312100  0.3102200  0.7705199    0.00000       Uiso       1.00
       C48          C  0.6594400  0.2744900  0.8388400    0.00000       Uiso       1.00
       C49          C  0.7049000  0.2534700  0.7939199    0.00000       Uiso       1.00
       C50          C  0.7774401  0.3091900  0.7255901    0.00000       Uiso       1.00
       C51          C  0.3778000  0.5506001  0.8813499    0.00000       Uiso       1.00
       C52          C  0.4574701  0.5429200  0.9598600    0.00000       Uiso       1.00
       C53          C  0.4154700  0.5129901  0.9193699    0.00000       Uiso       1.00
       C54          C  0.4235801  0.6493000  0.9220500    0.00000       Uiso       1.00
       C55          C  0.4613000  0.6117600  0.9600900    0.00000       Uiso       1.00
        O9          O  0.7126200  0.4222300  0.7927900    0.00000       Uiso       1.00
       O10          O  0.6270200  0.2375900  0.8689300    0.00000       Uiso       1.00
        N5          N  0.6579600  0.3417300  0.8428099    0.00000       Uiso       1.00
       H21          H  0.7977601  0.3571600  0.7076799    0.00000       Uiso       1.00
       H22          H  0.3439900  0.5248000  0.8493100    0.00000       Uiso       1.00
       H23          H  0.4124800  0.4571900  0.9178900    0.00000       Uiso       1.00
       H24          H  0.4275800  0.7050300  0.9236300    0.00000       Uiso       1.00
       H25          H  0.4958301  0.6368700  0.9919600    0.00000       Uiso       1.00
       C56          C  0.3811700  0.6192900  0.8822299    0.00000       Uiso       1.00
       C57          C  0.2988500  0.6355500  0.8017500    0.00000       Uiso       1.00
       C58          C  0.2687900  0.6897800  0.7705199    0.00000       Uiso       1.00
       C59          C  0.3405600  0.7255100  0.8388400    0.00000       Uiso       1.00
       C60          C  0.2951000  0.7465300  0.7939199    0.00000       Uiso       1.00
       C61          C  0.2225600  0.6908100  0.7255901    0.00000       Uiso       1.00
       C62          C  0.6222000  0.4494000  0.8813499    0.00000       Uiso       1.00
       C63          C  0.5425299  0.4570800  0.9598600    0.00000       Uiso       1.00
       C64          C  0.5845300  0.4870100  0.9193699    0.00000       Uiso       1.00
       C65          C  0.5764199  0.3507001  0.9220500    0.00000       Uiso       1.00
       C66          C  0.5387000  0.3882400  0.9600900    0.00000       Uiso       1.00
       O11          O  0.2873800  0.5777700  0.7927900    0.00000       Uiso       1.00
       O12          O  0.3729800  0.7624100  0.8689300    0.00000       Uiso       1.00
        N6          N  0.3420400  0.6582700  0.8428099    0.00000       Uiso       1.00
       H26          H  0.2022400  0.6428400  0.7076799    0.00000       Uiso       1.00
       H27          H  0.6560100  0.4752000  0.8493100    0.00000       Uiso       1.00
       H28          H  0.5875201  0.5428100  0.9178900    0.00000       Uiso       1.00
       H29          H  0.5724201  0.2949700  0.9236300    0.00000       Uiso       1.00
       H30          H  0.5041700  0.3631300  0.9919600    0.00000       Uiso       1.00
       C67          C  0.1192900  0.1188300  0.3822300    0.00000       Uiso       1.00
       C68          C  0.1355500  0.2011500  0.3017500    0.00000       Uiso       1.00
       C69          C  0.1897800  0.2312100  0.2705200    0.00000       Uiso       1.00
       C70          C  0.2255100  0.1594400  0.3388400    0.00000       Uiso       1.00
       C71          C  0.2465300  0.2049000  0.2939200    0.00000       Uiso       1.00
       C72          C  0.1908100  0.2774400  0.2255900    0.00000       Uiso       1.00
       C73          C  0.9494001  0.8778000  0.3813500    0.00000       Uiso       1.00
       C74          C  0.9570801  0.9574701  0.4598600    0.00000       Uiso       1.00
       C75          C  0.9870100  0.9154700  0.4193700    0.00000       Uiso       1.00
       C76          C  0.8507001  0.9235801  0.4220500    0.00000       Uiso       1.00
       C77          C  0.8882400  0.9613000  0.4600900    0.00000       Uiso       1.00
       O13          O  0.0777700  0.2126200  0.2927900    0.00000       Uiso       1.00
       O14          O  0.2624100  0.1270200  0.3689300    0.00000       Uiso       1.00
        N7          N  0.1582700  0.1579600  0.3428100    0.00000       Uiso       1.00
       H31          H  0.1428400  0.2977600  0.2076800    0.00000       Uiso       1.00
       H32          H  0.9752001  0.8439900  0.3493100    0.00000       Uiso       1.00
       H33          H  0.0428100  0.9124800  0.4178900    0.00000       Uiso       1.00
       H34          H  0.7949700  0.9275801  0.4236300    0.00000       Uiso       1.00
       H35          H  0.8631300  0.9958301  0.4919600    0.00000       Uiso       1.00
       C78          C  0.8807100  0.8811700  0.3822300    0.00000       Uiso       1.00
       C79          C  0.8644500  0.7988500  0.3017500    0.00000       Uiso       1.00
       C80          C  0.8102200  0.7687901  0.2705200    0.00000       Uiso       1.00
       C81          C  0.7744900  0.8405601  0.3388400    0.00000       Uiso       1.00
       C82          C  0.7534701  0.7951000  0.2939200    0.00000       Uiso       1.00
       C83          C  0.8091900  0.7225600  0.2255900    0.00000       Uiso       1.00
       C84          C  0.0506000  0.1222000  0.3813500    0.00000       Uiso       1.00
       C85          C  0.0429200  0.0425299  0.4598600    0.00000       Uiso       1.00
       C86          C  0.0129900  0.0845300  0.4193700    0.00000       Uiso       1.00
       C87          C  0.1493000  0.0764199  0.4220500    0.00000       Uiso       1.00
       C88          C  0.1117600  0.0387000  0.4600900    0.00000       Uiso       1.00
       O15          O  0.9222300  0.7873800  0.2927900    0.00000       Uiso       1.00
       O16          O  0.7375900  0.8729800  0.3689300    0.00000       Uiso       1.00
        N8          N  0.8417300  0.8420400  0.3428100    0.00000       Uiso       1.00
       H36          H  0.8571601  0.7022400  0.2076800    0.00000       Uiso       1.00
       H37          H  0.0248000  0.1560100  0.3493100    0.00000       Uiso       1.00
       H38          H  0.9571901  0.0875200  0.4178900    0.00000       Uiso       1.00
       H39          H  0.2050300  0.0724200  0.4236300    0.00000       Uiso       1.00
       H40          H  0.1368700  0.0041699  0.4919600    0.00000       Uiso       1.00
       C89          C  0.0000000  0.0000000  0.5000000    0.00000       Uiso       1.00
       C90          C  0.5000000  0.5000000  0.0000000    0.00000       Uiso       1.00
