data_crystal
 
_cell_length_a    34.59960
_cell_length_b    34.59960
_cell_length_c    7.15580
_cell_angle_alpha 90.00000
_cell_angle_beta  90.00000
_cell_angle_gamma 120.00000
 
_symmetry_space_group_name_Hall 'P 1'
_symmetry_space_group_name_H-M  'P 1'
 
loop_
_symmetry_equiv_pos_as_xyz
 'x,y,z' 
 
loop_
_atom_site_label
_atom_site_type_symbol
_atom_site_fract_x
_atom_site_fract_y
_atom_site_fract_z
C          C       0.30314   0.68498   0.00000 
C          C       0.31502   0.61816   0.00000 
C          C       0.38184   0.69686   0.00000 
C          C       0.69686   0.31502   0.00000 
C          C       0.68498   0.38184   0.00000 
C          C       0.61816   0.30314   0.00000 
C          C       0.35180   0.71573   0.00000 
C          C       0.28427   0.63607   0.00000 
C          C       0.36393   0.64820   0.00000 
C          C       0.64820   0.28427   0.00000 
C          C       0.71573   0.36393   0.00000 
C          C       0.63607   0.35180   0.00000 
C          C       0.36685   0.75931   0.00000 
C          C       0.24069   0.60754   0.00000 
C          C       0.39246   0.63315   0.00000 
C          C       0.63315   0.24069   0.00000 
C          C       0.75931   0.39246   0.00000 
C          C       0.60754   0.36685   0.00000 
C          C       0.59328   0.43189   0.00000 
C          C       0.56811   0.16139   0.00000 
C          C       0.83861   0.40672   0.00000 
C          C       0.40672   0.56811   0.00000 
C          C       0.43189   0.83861   0.00000 
C          C       0.16139   0.59328   0.00000 
C          C       0.61030   0.47637   0.42316 
C          C       0.52363   0.13393   0.42316 
C          C       0.86607   0.38970   0.42316 
C          C       0.38970   0.52363   0.42316 
C          C       0.47637   0.86607   0.42316 
C          C       0.13393   0.61030   0.42316 
C          C       0.58358   0.49609   0.42761 
C          C       0.50391   0.08749   0.42761 
C          C       0.91251   0.41642   0.42761 
C          C       0.41642   0.50391   0.42761 
C          C       0.49609   0.91251   0.42761 
C          C       0.08749   0.58358   0.42761 
C          C       0.53933   0.47153   0.00000 
C          C       0.52847   0.06780   0.00000 
C          C       0.93220   0.46067   0.00000 
C          C       0.46067   0.52847   0.00000 
C          C       0.47153   0.93220   0.00000 
C          C       0.06780   0.53933   0.00000 
C          C       0.52207   0.42738   0.04709 
C          C       0.57262   0.09469   0.04709 
C          C       0.90531   0.47793   0.04709 
C          C       0.47793   0.57262   0.04709 
C          C       0.42738   0.90531   0.04709 
C          C       0.09469   0.52207   0.04709 
C          C       0.54887   0.40770   0.04461 
C          C       0.59230   0.14117   0.04461 
C          C       0.85883   0.45113   0.04461 
C          C       0.45113   0.59230   0.04461 
C          C       0.40770   0.85883   0.04461 
C          C       0.14117   0.54887   0.04461 
C          C       0.51161   0.49159   0.00000 
C          C       0.50841   0.02002   0.00000 
C          C       0.97998   0.48839   0.00000 
C          C       0.48839   0.50841   0.00000 
C          C       0.49159   0.97998   0.00000 
C          C       0.02002   0.51161   0.00000 
O          O       0.27954   0.69969   0.00000 
O          O       0.30031   0.57985   0.00000 
O          O       0.42015   0.72046   0.00000 
O          O       0.72046   0.30031   0.00000 
O          O       0.69969   0.42015   0.00000 
O          O       0.57985   0.27954   0.00000 
N          N       0.41280   0.79087   0.00000 
N          N       0.20913   0.62193   0.00000 
N          N       0.37807   0.58720   0.00000 
N          N       0.58720   0.20913   0.00000 
N          N       0.79087   0.37807   0.00000 
N          N       0.62193   0.41280   0.00000 
H          H       0.34269   0.77031   0.00000 
H          H       0.22969   0.57238   0.00000 
H          H       0.42762   0.65731   0.00000 
H          H       0.65731   0.22969   0.00000 
H          H       0.77031   0.42762   0.00000 
H          H       0.57238   0.34269   0.00000 
H          H       0.43294   0.77903   0.00000 
H          H       0.22097   0.65391   0.00000 
H          H       0.34609   0.56706   0.00000 
H          H       0.56706   0.22097   0.00000 
H          H       0.77903   0.34609   0.00000 
H          H       0.65391   0.43294   0.00000 
H          H       0.64435   0.49579   0.37399 
H          H       0.50421   0.14856   0.37399 
H          H       0.85144   0.35565   0.37399 
H          H       0.35565   0.50421   0.37399 
H          H       0.49579   0.85144   0.37399 
H          H       0.14856   0.64435   0.37399 
H          H       0.59730   0.53033   0.38183 
H          H       0.46967   0.06697   0.38183 
H          H       0.93303   0.40270   0.38183 
H          H       0.40270   0.46967   0.38183 
H          H       0.53033   0.93303   0.38183 
H          H       0.06697   0.59730   0.38183 
H          H       0.48797   0.40825   0.09637 
H          H       0.59175   0.07972   0.09637 
H          H       0.92028   0.51203   0.09637 
H          H       0.51203   0.59175   0.09637 
H          H       0.40825   0.92028   0.09637 
H          H       0.07972   0.48797   0.09637 
H          H       0.53458   0.37393   0.09552 
H          H       0.62607   0.16065   0.09552 
H          H       0.83935   0.46542   0.09552 
H          H       0.46542   0.62607   0.09552 
H          H       0.37393   0.83935   0.09552 
H          H       0.16065   0.53458   0.09552 
C          C       0.30314   0.68498   0.50000 
C          C       0.31502   0.61816   0.50000 
C          C       0.38184   0.69686   0.50000 
C          C       0.69686   0.31502   0.50000 
C          C       0.68498   0.38184   0.50000 
C          C       0.61816   0.30314   0.50000 
C          C       0.35180   0.71573   0.50000 
C          C       0.28427   0.63607   0.50000 
C          C       0.36393   0.64820   0.50000 
C          C       0.64820   0.28427   0.50000 
C          C       0.71573   0.36393   0.50000 
C          C       0.63607   0.35180   0.50000 
C          C       0.36685   0.75931   0.50000 
C          C       0.24069   0.60754   0.50000 
C          C       0.39246   0.63315   0.50000 
C          C       0.63315   0.24069   0.50000 
C          C       0.75931   0.39246   0.50000 
C          C       0.60754   0.36685   0.50000 
C          C       0.59328   0.43189   0.50000 
C          C       0.56811   0.16139   0.50000 
C          C       0.83861   0.40672   0.50000 
C          C       0.40672   0.56811   0.50000 
C          C       0.43189   0.83861   0.50000 
C          C       0.16139   0.59328   0.50000 
C          C       0.61030   0.47637   0.92316 
C          C       0.52363   0.13393   0.92316 
C          C       0.86607   0.38970   0.92316 
C          C       0.38970   0.52363   0.92316 
C          C       0.47637   0.86607   0.92316 
C          C       0.13393   0.61030   0.92316 
C          C       0.58358   0.49609   0.92760 
C          C       0.50391   0.08749   0.92760 
C          C       0.91251   0.41642   0.92760 
C          C       0.41642   0.50391   0.92760 
C          C       0.49609   0.91251   0.92760 
C          C       0.08749   0.58358   0.92760 
C          C       0.53933   0.47153   0.50000 
C          C       0.52847   0.06780   0.50000 
C          C       0.93220   0.46067   0.50000 
C          C       0.46067   0.52847   0.50000 
C          C       0.47153   0.93220   0.50000 
C          C       0.06780   0.53933   0.50000 
C          C       0.52207   0.42738   0.54709 
C          C       0.57262   0.09469   0.54709 
C          C       0.90531   0.47793   0.54709 
C          C       0.47793   0.57262   0.54709 
C          C       0.42738   0.90531   0.54709 
C          C       0.09469   0.52207   0.54709 
C          C       0.54887   0.40770   0.54461 
C          C       0.59230   0.14117   0.54461 
C          C       0.85883   0.45113   0.54461 
C          C       0.45113   0.59230   0.54461 
C          C       0.40770   0.85883   0.54461 
C          C       0.14117   0.54887   0.54461 
C          C       0.51161   0.49159   0.50000 
C          C       0.50841   0.02002   0.50000 
C          C       0.97998   0.48839   0.50000 
C          C       0.48839   0.50841   0.50000 
C          C       0.49159   0.97998   0.50000 
C          C       0.02002   0.51161   0.50000 
O          O       0.27954   0.69969   0.50000 
O          O       0.30031   0.57985   0.50000 
O          O       0.42015   0.72046   0.50000 
O          O       0.72046   0.30031   0.50000 
O          O       0.69969   0.42015   0.50000 
O          O       0.57985   0.27954   0.50000 
N          N       0.41280   0.79087   0.50000 
N          N       0.20913   0.62193   0.50000 
N          N       0.37807   0.58720   0.50000 
N          N       0.58720   0.20913   0.50000 
N          N       0.79087   0.37807   0.50000 
N          N       0.62193   0.41280   0.50000 
H          H       0.34269   0.77031   0.50000 
H          H       0.22969   0.57238   0.50000 
H          H       0.42762   0.65731   0.50000 
H          H       0.65731   0.22969   0.50000 
H          H       0.77031   0.42762   0.50000 
H          H       0.57238   0.34269   0.50000 
H          H       0.43294   0.77903   0.50000 
H          H       0.22097   0.65391   0.50000 
H          H       0.34609   0.56706   0.50000 
H          H       0.56706   0.22097   0.50000 
H          H       0.77903   0.34609   0.50000 
H          H       0.65391   0.43294   0.50000 
H          H       0.64435   0.49579   0.87399 
H          H       0.50421   0.14856   0.87399 
H          H       0.85144   0.35565   0.87399 
H          H       0.35565   0.50421   0.87399 
H          H       0.49579   0.85144   0.87399 
H          H       0.14856   0.64435   0.87399 
H          H       0.59730   0.53033   0.88183 
H          H       0.46967   0.06697   0.88183 
H          H       0.93303   0.40270   0.88183 
H          H       0.40270   0.46967   0.88183 
H          H       0.53033   0.93303   0.88183 
H          H       0.06697   0.59730   0.88183 
H          H       0.48797   0.40825   0.59637 
H          H       0.59175   0.07972   0.59637 
H          H       0.92028   0.51203   0.59637 
H          H       0.51203   0.59175   0.59637 
H          H       0.40825   0.92028   0.59637 
H          H       0.07972   0.48797   0.59637 
H          H       0.53458   0.37393   0.59552 
H          H       0.62607   0.16065   0.59552 
H          H       0.83935   0.46542   0.59552 
H          H       0.46542   0.62607   0.59552 
H          H       0.37393   0.83935   0.59552 
H          H       0.16065   0.53458   0.59552 
