data_crystal

_cell_length_a    39.09810
_cell_length_b    39.09810
_cell_length_c    7.17360
_cell_angle_alpha 90.00000
_cell_angle_beta  90.00000
_cell_angle_gamma 120.00000

_space_group_name_Hall 'P 1'
_space_group_name_H-M_alt  'P 1'

loop_
_symmetry_equiv_pos_as_xyz
'x,y,z' 

loop_
_atom_site_label
_atom_site_type_symbol
_atom_site_fract_x
_atom_site_fract_y
_atom_site_fract_z
C          C       0.30694   0.68319   0.00000 
C          C       0.31681   0.62375   0.00000 
C          C       0.37625   0.69306   0.00000 
C          C       0.69306   0.31681   0.00000 
C          C       0.68319   0.37625   0.00000 
C          C       0.62375   0.30694   0.00000 
C          C       0.35002   0.71013   0.00000 
C          C       0.28987   0.63989   0.00000 
C          C       0.36011   0.64998   0.00000 
C          C       0.64998   0.28987   0.00000 
C          C       0.71013   0.36011   0.00000 
C          C       0.63989   0.35002   0.00000 
C          C       0.36359   0.74865   0.00000 
C          C       0.25135   0.61494   0.00000 
C          C       0.38506   0.63641   0.00000 
C          C       0.63641   0.25135   0.00000 
C          C       0.74865   0.38506   0.00000 
C          C       0.61494   0.36359   0.00000 
C          C       0.60308   0.42160   0.00000 
C          C       0.57840   0.18148   0.00000 
C          C       0.81852   0.39692   0.00000 
C          C       0.39692   0.57840   0.00000 
C          C       0.42160   0.81852   0.00000 
C          C       0.18148   0.60308   0.00000 
C          C       0.61850   0.46097   0.07778 
C          C       0.53903   0.15753   0.07778 
C          C       0.84247   0.38150   0.07778 
C          C       0.38150   0.53903   0.07778 
C          C       0.46097   0.84247   0.07778 
C          C       0.15753   0.61850   0.07778 
C          C       0.59525   0.47886   0.07303 
C          C       0.52114   0.11639   0.07303 
C          C       0.88361   0.40475   0.07303 
C          C       0.40475   0.52114   0.07303 
C          C       0.47886   0.88361   0.07303 
C          C       0.11639   0.59525   0.07303 
C          C       0.55613   0.45757   0.00000 
C          C       0.54243   0.09856   0.00000 
C          C       0.90144   0.44387   0.00000 
C          C       0.44387   0.54243   0.00000 
C          C       0.45757   0.90144   0.00000 
C          C       0.09856   0.55613   0.00000 
C          C       0.54051   0.41848   0.45194 
C          C       0.58152   0.12203   0.45194 
C          C       0.87797   0.45949   0.45194 
C          C       0.45949   0.58152   0.45194 
C          C       0.41848   0.87797   0.45194 
C          C       0.12203   0.54051   0.45194 
C          C       0.56383   0.40063   0.45476 
C          C       0.59937   0.16320   0.45476 
C          C       0.83680   0.43617   0.45476 
C          C       0.43617   0.59937   0.45476 
C          C       0.40063   0.83680   0.45476 
C          C       0.16320   0.56383   0.45476 
C          C       0.53203   0.47580   0.00000 
C          C       0.52420   0.05623   0.00000 
C          C       0.94377   0.46797   0.00000 
C          C       0.46797   0.52420   0.00000 
C          C       0.47580   0.94377   0.00000 
C          C       0.05623   0.53203   0.00000 
C          C       0.51183   0.49106   0.00000 
C          C       0.50894   0.02077   0.00000 
C          C       0.97923   0.48817   0.00000 
C          C       0.48817   0.50894   0.00000 
C          C       0.49106   0.97923   0.00000 
C          C       0.02077   0.51183   0.00000 
O          O       0.28600   0.69666   0.00000 
O          O       0.30334   0.58934   0.00000 
O          O       0.41066   0.71400   0.00000 
O          O       0.71400   0.30334   0.00000 
O          O       0.69666   0.41066   0.00000 
O          O       0.58934   0.28600   0.00000 
N          N       0.40424   0.77621   0.00000 
N          N       0.22379   0.62803   0.00000 
N          N       0.37197   0.59576   0.00000 
N          N       0.59576   0.22379   0.00000 
N          N       0.77621   0.37197   0.00000 
N          N       0.62803   0.40424   0.00000 
H          H       0.34241   0.75864   0.00000 
H          H       0.24136   0.58377   0.00000 
H          H       0.41623   0.65759   0.00000 
H          H       0.65759   0.24136   0.00000 
H          H       0.75864   0.41623   0.00000 
H          H       0.58377   0.34241   0.00000 
H          H       0.42162   0.76542   0.00000 
H          H       0.23458   0.65620   0.00000 
H          H       0.34380   0.57838   0.00000 
H          H       0.57838   0.23458   0.00000 
H          H       0.76542   0.34380   0.00000 
H          H       0.65620   0.42162   0.00000 
H          H       0.64861   0.47781   0.12765 
H          H       0.52219   0.17080   0.12765 
H          H       0.82920   0.35139   0.12765 
H          H       0.35139   0.52219   0.12765 
H          H       0.47781   0.82920   0.12765 
H          H       0.17080   0.64861   0.12765 
H          H       0.60766   0.50915   0.11923 
H          H       0.49085   0.09851   0.11923 
H          H       0.90149   0.39234   0.11923 
H          H       0.39234   0.49085   0.11923 
H          H       0.50915   0.90149   0.11923 
H          H       0.09851   0.60766   0.11923 
H          H       0.51038   0.40189   0.40182 
H          H       0.59811   0.10849   0.40182 
H          H       0.89151   0.48962   0.40182 
H          H       0.48962   0.59811   0.40182 
H          H       0.40189   0.89151   0.40182 
H          H       0.10849   0.51038   0.40182 
H          H       0.55093   0.37076   0.40346 
H          H       0.62924   0.18017   0.40346 
H          H       0.81983   0.44907   0.40346 
H          H       0.44907   0.62924   0.40346 
H          H       0.37076   0.81983   0.40346 
H          H       0.18017   0.55093   0.40346 
C          C       0.30694   0.68319   0.50000 
C          C       0.31681   0.62375   0.50000 
C          C       0.37625   0.69306   0.50000 
C          C       0.69306   0.31681   0.50000 
C          C       0.68319   0.37625   0.50000 
C          C       0.62375   0.30694   0.50000 
C          C       0.35002   0.71013   0.50000 
C          C       0.28987   0.63989   0.50000 
C          C       0.36011   0.64998   0.50000 
C          C       0.64998   0.28987   0.50000 
C          C       0.71013   0.36011   0.50000 
C          C       0.63989   0.35002   0.50000 
C          C       0.36359   0.74865   0.50000 
C          C       0.25135   0.61494   0.50000 
C          C       0.38506   0.63641   0.50000 
C          C       0.63641   0.25135   0.50000 
C          C       0.74865   0.38506   0.50000 
C          C       0.61494   0.36359   0.50000 
C          C       0.60308   0.42160   0.50000 
C          C       0.57840   0.18148   0.50000 
C          C       0.81852   0.39692   0.50000 
C          C       0.39692   0.57840   0.50000 
C          C       0.42160   0.81852   0.50000 
C          C       0.18148   0.60308   0.50000 
C          C       0.61850   0.46097   0.57778 
C          C       0.53903   0.15753   0.57778 
C          C       0.84247   0.38150   0.57778 
C          C       0.38150   0.53903   0.57778 
C          C       0.46097   0.84247   0.57778 
C          C       0.15753   0.61850   0.57778 
C          C       0.59525   0.47886   0.57303 
C          C       0.52114   0.11639   0.57303 
C          C       0.88361   0.40475   0.57303 
C          C       0.40475   0.52114   0.57303 
C          C       0.47886   0.88361   0.57303 
C          C       0.11639   0.59525   0.57303 
C          C       0.55613   0.45757   0.50000 
C          C       0.54243   0.09856   0.50000 
C          C       0.90144   0.44387   0.50000 
C          C       0.44387   0.54243   0.50000 
C          C       0.45757   0.90144   0.50000 
C          C       0.09856   0.55613   0.50000 
C          C       0.54051   0.41848   0.95194 
C          C       0.58152   0.12203   0.95194 
C          C       0.87797   0.45949   0.95194 
C          C       0.45949   0.58152   0.95194 
C          C       0.41848   0.87797   0.95194 
C          C       0.12203   0.54051   0.95194 
C          C       0.56383   0.40063   0.95476 
C          C       0.59937   0.16320   0.95476 
C          C       0.83680   0.43617   0.95476 
C          C       0.43617   0.59937   0.95476 
C          C       0.40063   0.83680   0.95476 
C          C       0.16320   0.56383   0.95476 
C          C       0.53203   0.47580   0.50000 
C          C       0.52420   0.05623   0.50000 
C          C       0.94377   0.46797   0.50000 
C          C       0.46797   0.52420   0.50000 
C          C       0.47580   0.94377   0.50000 
C          C       0.05623   0.53203   0.50000 
C          C       0.51183   0.49106   0.50000 
C          C       0.50894   0.02077   0.50000 
C          C       0.97923   0.48817   0.50000 
C          C       0.48817   0.50894   0.50000 
C          C       0.49106   0.97923   0.50000 
C          C       0.02077   0.51183   0.50000 
O          O       0.28600   0.69666   0.50000 
O          O       0.30334   0.58934   0.50000 
O          O       0.41066   0.71400   0.50000 
O          O       0.71400   0.30334   0.50000 
O          O       0.69666   0.41066   0.50000 
O          O       0.58934   0.28600   0.50000 
N          N       0.40424   0.77621   0.50000 
N          N       0.22379   0.62803   0.50000 
N          N       0.37197   0.59576   0.50000 
N          N       0.59576   0.22379   0.50000 
N          N       0.77621   0.37197   0.50000 
N          N       0.62803   0.40424   0.50000 
H          H       0.34241   0.75864   0.50000 
H          H       0.24136   0.58377   0.50000 
H          H       0.41623   0.65759   0.50000 
H          H       0.65759   0.24136   0.50000 
H          H       0.75864   0.41623   0.50000 
H          H       0.58377   0.34241   0.50000 
H          H       0.42162   0.76542   0.50000 
H          H       0.23458   0.65620   0.50000 
H          H       0.34380   0.57838   0.50000 
H          H       0.57838   0.23458   0.50000 
H          H       0.76542   0.34380   0.50000 
H          H       0.65620   0.42162   0.50000 
H          H       0.64861   0.47781   0.62765 
H          H       0.52219   0.17080   0.62765 
H          H       0.82920   0.35139   0.62765 
H          H       0.35139   0.52219   0.62765 
H          H       0.47781   0.82920   0.62765 
H          H       0.17080   0.64861   0.62765 
H          H       0.60766   0.50915   0.61923 
H          H       0.49085   0.09851   0.61923 
H          H       0.90149   0.39234   0.61923 
H          H       0.39234   0.49085   0.61923 
H          H       0.50915   0.90149   0.61923 
H          H       0.09851   0.60766   0.61923 
H          H       0.51038   0.40189   0.90182 
H          H       0.59811   0.10849   0.90182 
H          H       0.89151   0.48962   0.90182 
H          H       0.48962   0.59811   0.90182 
H          H       0.40189   0.89151   0.90182 
H          H       0.10849   0.51038   0.90182 
H          H       0.55093   0.37076   0.90346 
H          H       0.62924   0.18017   0.90346 
H          H       0.81983   0.44907   0.90346 
H          H       0.44907   0.62924   0.90346 
H          H       0.37076   0.81983   0.90346 
H          H       0.18017   0.55093   0.90346 
