data_crystal

_cell_length_a    30.91840
_cell_length_b    32.47980
_cell_length_c    7.34420
_cell_angle_alpha 90.00000
_cell_angle_beta  90.00000
_cell_angle_gamma 90.00000

_space_group_name_Hall 'P 1'
_space_group_name_H-M_alt  'P 1'

loop_
_symmetry_equiv_pos_as_xyz
'x,y,z' 

loop_
_atom_site_label
_atom_site_type_symbol
_atom_site_fract_x
_atom_site_fract_y
_atom_site_fract_z
C          C       0.46128   0.96237   0.48793 
C          C       0.53872   0.03763   0.48793 
C          C       0.03872   0.46237   0.01206 
C          C       0.96128   0.53763   0.01206 
C          C       0.03872   0.53763   0.01206 
C          C       0.96128   0.46237   0.01206 
C          C       0.46128   0.03763   0.48793 
C          C       0.53872   0.96237   0.48793 
C          C       0.42378   0.01833   0.49074 
C          C       0.57622   0.98167   0.49074 
C          C       0.07622   0.51833   0.00925 
C          C       0.92378   0.48167   0.00925 
C          C       0.07622   0.48167   0.00925 
C          C       0.92378   0.51833   0.00925 
C          C       0.42378   0.98167   0.49074 
C          C       0.57622   0.01833   0.49074 
C          C       0.46118   0.07516   0.48703 
C          C       0.53882   0.92484   0.48703 
C          C       0.03882   0.57516   0.01297 
C          C       0.96118   0.42484   0.01297 
C          C       0.03882   0.42484   0.01297 
C          C       0.96118   0.57516   0.01297 
C          C       0.46118   0.92484   0.48703 
C          C       0.53882   0.07516   0.48703 
C          C       0.42472   0.10257   0.45972 
C          C       0.57528   0.89743   0.45972 
C          C       0.07528   0.60257   0.04027 
C          C       0.92472   0.39743   0.04027 
C          C       0.07528   0.39743   0.04027 
C          C       0.92472   0.60257   0.04027 
C          C       0.42472   0.89743   0.45972 
C          C       0.57528   0.10257   0.45972 
C          C       0.42702   0.14315   0.02734 
C          C       0.57298   0.85685   0.02734 
C          C       0.07298   0.64315   0.47266 
C          C       0.92702   0.35685   0.47266 
C          C       0.07298   0.35685   0.47266 
C          C       0.92702   0.64315   0.47266 
C          C       0.42702   0.85685   0.02734 
C          C       0.57298   0.14315   0.02734 
C          C       0.39144   0.16608   0.01452 
C          C       0.60856   0.83392   0.01452 
C          C       0.10856   0.66608   0.48547 
C          C       0.89144   0.33392   0.48547 
C          C       0.10856   0.33392   0.48547 
C          C       0.89144   0.66608   0.48547 
C          C       0.39144   0.83392   0.01452 
C          C       0.60856   0.16608   0.01452 
C          C       0.35353   0.14724   0.44986 
C          C       0.64647   0.85276   0.44986 
C          C       0.14647   0.64724   0.05013 
C          C       0.85353   0.35276   0.05013 
C          C       0.14647   0.35276   0.05013 
C          C       0.85353   0.64724   0.05013 
C          C       0.35353   0.85276   0.44986 
C          C       0.64647   0.14724   0.44986 
C          C       0.35051   0.10857   0.39103 
C          C       0.64949   0.89143   0.39103 
C          C       0.14949   0.60857   0.10897 
C          C       0.85051   0.39143   0.10897 
C          C       0.14949   0.39143   0.10897 
C          C       0.85051   0.60857   0.10897 
C          C       0.35051   0.89143   0.39103 
C          C       0.64949   0.10857   0.39103 
C          C       0.38590   0.08891   0.37537 
C          C       0.61410   0.91109   0.37537 
C          C       0.11410   0.58891   0.12463 
C          C       0.88590   0.41109   0.12463 
C          C       0.11410   0.41109   0.12463 
C          C       0.88590   0.58891   0.12463 
C          C       0.38590   0.91109   0.37537 
C          C       0.61410   0.08891   0.37537 
C          C       0.31625   0.16662   0.43647 
C          C       0.68375   0.83338   0.43647 
C          C       0.18375   0.66662   0.06352 
C          C       0.81625   0.33338   0.06352 
C          C       0.18375   0.33338   0.06352 
C          C       0.81625   0.66662   0.06352 
C          C       0.31625   0.83338   0.43647 
C          C       0.68375   0.16662   0.43647 
C          C       0.78254   0.27446   0.00503 
C          C       0.21746   0.72554   0.00503 
C          C       0.71746   0.77446   0.49497 
C          C       0.28254   0.22554   0.49497 
C          C       0.71746   0.22554   0.49497 
C          C       0.28254   0.77446   0.49497 
C          C       0.78254   0.72554   0.00503 
C          C       0.21746   0.27446   0.00503 
C          C       0.79053   0.23539   0.45206 
C          C       0.20947   0.76461   0.45206 
C          C       0.70947   0.73539   0.04794 
C          C       0.29053   0.26461   0.04794 
C          C       0.70947   0.26461   0.04794 
C          C       0.29053   0.73539   0.04794 
C          C       0.79053   0.76461   0.45206 
C          C       0.20947   0.23539   0.45206 
N          N       0.31747   0.20269   0.49172 
N          N       0.68253   0.79731   0.49172 
N          N       0.18253   0.70269   0.00828 
N          N       0.81747   0.29731   0.00828 
N          N       0.18253   0.29731   0.00828 
N          N       0.81747   0.70269   0.00828 
N          N       0.31747   0.79731   0.49172 
N          N       0.68253   0.20269   0.49172 
C          C       0.24203   0.78988   0.44808 
C          C       0.75797   0.21012   0.44808 
C          C       0.25797   0.28988   0.05192 
C          C       0.74203   0.71012   0.05192 
C          C       0.25797   0.71012   0.05192 
C          C       0.74203   0.28988   0.05192 
C          C       0.24203   0.21012   0.44808 
C          C       0.75797   0.78988   0.44808 
H          H       0.39439   0.02848   0.04148 
H          H       0.60561   0.97152   0.04148 
H          H       0.10561   0.52848   0.45852 
H          H       0.89439   0.47152   0.45852 
H          H       0.10561   0.47152   0.45852 
H          H       0.89439   0.52848   0.45852 
H          H       0.39439   0.97152   0.04148 
H          H       0.60561   0.02848   0.04148 
H          H       0.45410   0.15645   0.11033 
H          H       0.54590   0.84355   0.11033 
H          H       0.04590   0.65645   0.38966 
H          H       0.95410   0.34355   0.38966 
H          H       0.04590   0.34355   0.38966 
H          H       0.95410   0.65645   0.38966 
H          H       0.45410   0.84355   0.11033 
H          H       0.54590   0.15645   0.11033 
H          H       0.39245   0.19665   0.07688 
H          H       0.60755   0.80335   0.07688 
H          H       0.10755   0.69665   0.42312 
H          H       0.89245   0.30335   0.42312 
H          H       0.10755   0.30335   0.42312 
H          H       0.89245   0.69665   0.42312 
H          H       0.39245   0.80335   0.07688 
H          H       0.60755   0.19665   0.07688 
H          H       0.32165   0.09471   0.32727 
H          H       0.67835   0.90529   0.32727 
H          H       0.17835   0.59471   0.17272 
H          H       0.82165   0.40529   0.17272 
H          H       0.17835   0.40529   0.17272 
H          H       0.82165   0.59471   0.17272 
H          H       0.32165   0.90529   0.32727 
H          H       0.67835   0.09471   0.32727 
H          H       0.37971   0.06310   0.28708 
H          H       0.62029   0.93690   0.28708 
H          H       0.12029   0.56310   0.21292 
H          H       0.87971   0.43690   0.21292 
H          H       0.12029   0.43690   0.21292 
H          H       0.87971   0.56310   0.21292 
H          H       0.37971   0.93690   0.28708 
H          H       0.62029   0.06310   0.28708 
H          H       0.28882   0.15130   0.37154 
H          H       0.71118   0.84870   0.37154 
H          H       0.21118   0.65130   0.12846 
H          H       0.78882   0.34870   0.12846 
H          H       0.21118   0.34870   0.12846 
H          H       0.78882   0.65130   0.12846 
H          H       0.28882   0.84870   0.37154 
H          H       0.71118   0.15130   0.37154 
H          H       0.82168   0.22548   0.40107 
H          H       0.17832   0.77452   0.40107 
H          H       0.67832   0.72548   0.09893 
H          H       0.32168   0.27452   0.09893 
H          H       0.67832   0.27452   0.09893 
H          H       0.32168   0.72548   0.09893 
H          H       0.82168   0.77452   0.40107 
H          H       0.17832   0.22548   0.40107 
H          H       0.23433   0.81994   0.39655 
H          H       0.76567   0.18006   0.39655 
H          H       0.26567   0.31994   0.10345 
H          H       0.73433   0.68006   0.10345 
H          H       0.26567   0.68006   0.10345 
H          H       0.73433   0.31994   0.10345 
H          H       0.23433   0.18006   0.39655 
H          H       0.76567   0.81994   0.39655 
C          C       0.50000   0.09261   0.48667 
C          C       0.50000   0.90739   0.48667 
C          C      -0.00000   0.59261   0.01333 
C          C      -0.00000   0.40739   0.01333 
C          C       0.50000   0.98114   0.48753 
C          C       0.50000   0.01886   0.48753 
C          C       0.00000   0.48114   0.01246 
C          C      -0.00000   0.51886   0.01246 
H          H       0.00000   0.62365   0.05586 
H          H      -0.00000   0.37635   0.05586 
H          H       0.50000   0.12365   0.44414 
H          H       0.50000   0.87635   0.44414 
C          C       0.46128   0.96237   0.98793 
C          C       0.53872   0.03763   0.98793 
C          C       0.03872   0.46237   0.51206 
C          C       0.96128   0.53763   0.51206 
C          C       0.03872   0.53763   0.51206 
C          C       0.96128   0.46237   0.51206 
C          C       0.46128   0.03763   0.98793 
C          C       0.53872   0.96237   0.98793 
C          C       0.42378   0.01833   0.99074 
C          C       0.57622   0.98167   0.99074 
C          C       0.07622   0.51833   0.50926 
C          C       0.92378   0.48167   0.50926 
C          C       0.07622   0.48167   0.50926 
C          C       0.92378   0.51833   0.50926 
C          C       0.42378   0.98167   0.99074 
C          C       0.57622   0.01833   0.99074 
C          C       0.46118   0.07516   0.98703 
C          C       0.53882   0.92484   0.98703 
C          C       0.03882   0.57516   0.51297 
C          C       0.96118   0.42484   0.51297 
C          C       0.03882   0.42484   0.51297 
C          C       0.96118   0.57516   0.51297 
C          C       0.46118   0.92484   0.98703 
C          C       0.53882   0.07516   0.98703 
C          C       0.42472   0.10257   0.95972 
C          C       0.57528   0.89743   0.95972 
C          C       0.07528   0.60257   0.54027 
C          C       0.92472   0.39743   0.54027 
C          C       0.07528   0.39743   0.54027 
C          C       0.92472   0.60257   0.54027 
C          C       0.42472   0.89743   0.95972 
C          C       0.57528   0.10257   0.95972 
C          C       0.42702   0.14315   0.52734 
C          C       0.57298   0.85685   0.52734 
C          C       0.07298   0.64315   0.97266 
C          C       0.92702   0.35685   0.97266 
C          C       0.07298   0.35685   0.97266 
C          C       0.92702   0.64315   0.97266 
C          C       0.42702   0.85685   0.52734 
C          C       0.57298   0.14315   0.52734 
C          C       0.39144   0.16608   0.51453 
C          C       0.60856   0.83392   0.51453 
C          C       0.10856   0.66608   0.98547 
C          C       0.89144   0.33392   0.98547 
C          C       0.10856   0.33392   0.98547 
C          C       0.89144   0.66608   0.98547 
C          C       0.39144   0.83392   0.51453 
C          C       0.60856   0.16608   0.51453 
C          C       0.35353   0.14724   0.94986 
C          C       0.64647   0.85276   0.94986 
C          C       0.14647   0.64724   0.55013 
C          C       0.85353   0.35276   0.55013 
C          C       0.14647   0.35276   0.55013 
C          C       0.85353   0.64724   0.55013 
C          C       0.35353   0.85276   0.94986 
C          C       0.64647   0.14724   0.94986 
C          C       0.35051   0.10857   0.89103 
C          C       0.64949   0.89143   0.89103 
C          C       0.14949   0.60857   0.60897 
C          C       0.85051   0.39143   0.60897 
C          C       0.14949   0.39143   0.60897 
C          C       0.85051   0.60857   0.60897 
C          C       0.35051   0.89143   0.89103 
C          C       0.64949   0.10857   0.89103 
C          C       0.38590   0.08891   0.87536 
C          C       0.61410   0.91109   0.87536 
C          C       0.11410   0.58891   0.62463 
C          C       0.88590   0.41109   0.62463 
C          C       0.11410   0.41109   0.62463 
C          C       0.88590   0.58891   0.62463 
C          C       0.38590   0.91109   0.87536 
C          C       0.61410   0.08891   0.87536 
C          C       0.31625   0.16662   0.93647 
C          C       0.68375   0.83338   0.93647 
C          C       0.18375   0.66662   0.56352 
C          C       0.81625   0.33338   0.56352 
C          C       0.18375   0.33338   0.56352 
C          C       0.81625   0.66662   0.56352 
C          C       0.31625   0.83338   0.93647 
C          C       0.68375   0.16662   0.93647 
C          C       0.78254   0.27446   0.50503 
C          C       0.21746   0.72554   0.50503 
C          C       0.71746   0.77446   0.99497 
C          C       0.28254   0.22554   0.99497 
C          C       0.71746   0.22554   0.99497 
C          C       0.28254   0.77446   0.99497 
C          C       0.78254   0.72554   0.50503 
C          C       0.21746   0.27446   0.50503 
C          C       0.79053   0.23539   0.95206 
C          C       0.20947   0.76461   0.95206 
C          C       0.70947   0.73539   0.54794 
C          C       0.29053   0.26461   0.54794 
C          C       0.70947   0.26461   0.54794 
C          C       0.29053   0.73539   0.54794 
C          C       0.79053   0.76461   0.95206 
C          C       0.20947   0.23539   0.95206 
N          N       0.31747   0.20269   0.99172 
N          N       0.68253   0.79731   0.99172 
N          N       0.18253   0.70269   0.50828 
N          N       0.81747   0.29731   0.50828 
N          N       0.18253   0.29731   0.50828 
N          N       0.81747   0.70269   0.50828 
N          N       0.31747   0.79731   0.99172 
N          N       0.68253   0.20269   0.99172 
C          C       0.24203   0.78988   0.94808 
C          C       0.75797   0.21012   0.94808 
C          C       0.25797   0.28988   0.55192 
C          C       0.74203   0.71012   0.55192 
C          C       0.25797   0.71012   0.55192 
C          C       0.74203   0.28988   0.55192 
C          C       0.24203   0.21012   0.94808 
C          C       0.75797   0.78988   0.94808 
H          H       0.39439   0.02848   0.54148 
H          H       0.60561   0.97152   0.54148 
H          H       0.10561   0.52848   0.95852 
H          H       0.89439   0.47152   0.95852 
H          H       0.10561   0.47152   0.95852 
H          H       0.89439   0.52848   0.95852 
H          H       0.39439   0.97152   0.54148 
H          H       0.60561   0.02848   0.54148 
H          H       0.45410   0.15645   0.61033 
H          H       0.54590   0.84355   0.61033 
H          H       0.04590   0.65645   0.88966 
H          H       0.95410   0.34355   0.88966 
H          H       0.04590   0.34355   0.88966 
H          H       0.95410   0.65645   0.88966 
H          H       0.45410   0.84355   0.61033 
H          H       0.54590   0.15645   0.61033 
H          H       0.39245   0.19665   0.57688 
H          H       0.60755   0.80335   0.57688 
H          H       0.10755   0.69665   0.92312 
H          H       0.89245   0.30335   0.92312 
H          H       0.10755   0.30335   0.92312 
H          H       0.89245   0.69665   0.92312 
H          H       0.39245   0.80335   0.57688 
H          H       0.60755   0.19665   0.57688 
H          H       0.32165   0.09471   0.82727 
H          H       0.67835   0.90529   0.82727 
H          H       0.17835   0.59471   0.67273 
H          H       0.82165   0.40529   0.67273 
H          H       0.17835   0.40529   0.67273 
H          H       0.82165   0.59471   0.67273 
H          H       0.32165   0.90529   0.82727 
H          H       0.67835   0.09471   0.82727 
H          H       0.37971   0.06310   0.78708 
H          H       0.62029   0.93690   0.78708 
H          H       0.12029   0.56310   0.71292 
H          H       0.87971   0.43690   0.71292 
H          H       0.12029   0.43690   0.71292 
H          H       0.87971   0.56310   0.71292 
H          H       0.37971   0.93690   0.78708 
H          H       0.62029   0.06310   0.78708 
H          H       0.28882   0.15130   0.87154 
H          H       0.71118   0.84870   0.87154 
H          H       0.21118   0.65130   0.62846 
H          H       0.78882   0.34870   0.62846 
H          H       0.21118   0.34870   0.62846 
H          H       0.78882   0.65130   0.62846 
H          H       0.28882   0.84870   0.87154 
H          H       0.71118   0.15130   0.87154 
H          H       0.82168   0.22548   0.90107 
H          H       0.17832   0.77452   0.90107 
H          H       0.67832   0.72548   0.59893 
H          H       0.32168   0.27452   0.59893 
H          H       0.67832   0.27452   0.59893 
H          H       0.32168   0.72548   0.59893 
H          H       0.82168   0.77452   0.90107 
H          H       0.17832   0.22548   0.90107 
H          H       0.23433   0.81994   0.89655 
H          H       0.76567   0.18006   0.89655 
H          H       0.26567   0.31994   0.60345 
H          H       0.73433   0.68006   0.60345 
H          H       0.26567   0.68006   0.60345 
H          H       0.73433   0.31994   0.60345 
H          H       0.23433   0.18006   0.89655 
H          H       0.76567   0.81994   0.89655 
C          C       0.50000   0.09261   0.98667 
C          C       0.50000   0.90739   0.98667 
C          C      -0.00000   0.59261   0.51333 
C          C      -0.00000   0.40739   0.51333 
C          C       0.50000   0.98114   0.98753 
C          C       0.50000   0.01886   0.98753 
C          C       0.00000   0.48114   0.51246 
C          C      -0.00000   0.51886   0.51246 
H          H       0.00000   0.62365   0.55586 
H          H       0.00000   0.37635   0.55586 
H          H       0.50000   0.12365   0.94414 
H          H       0.50000   0.87635   0.94414 
