data_crystal

_cell_length_a    32.95180
_cell_length_b    31.02160
_cell_length_c    7.21040
_cell_angle_alpha 90.00000
_cell_angle_beta  90.00000
_cell_angle_gamma 90.00000

_space_group_name_Hall 'P 1'
_space_group_name_H-M_alt  'P 1'

loop_
_symmetry_equiv_pos_as_xyz
'x,y,z' 

loop_
_atom_site_label
_atom_site_type_symbol
_atom_site_fract_x
_atom_site_fract_y
_atom_site_fract_z
C          C       0.46403   0.95591   0.11695 
C          C       0.53597   0.04409   0.11695 
C          C       0.03597   0.45591   0.38305 
C          C       0.96403   0.54409   0.38305 
C          C       0.03597   0.54409   0.38305 
C          C       0.96403   0.45591   0.38305 
C          C       0.46403   0.04409   0.11695 
C          C       0.53597   0.95591   0.11695 
C          C       0.42920   0.02148   0.11923 
C          C       0.57080   0.97852   0.11923 
C          C       0.07080   0.52148   0.38077 
C          C       0.92920   0.47852   0.38077 
C          C       0.07080   0.47852   0.38077 
C          C       0.92920   0.52148   0.38077 
C          C       0.42920   0.97852   0.11923 
C          C       0.57080   0.02148   0.11923 
C          C       0.46393   0.08806   0.11580 
C          C       0.53607   0.91194   0.11580 
C          C       0.03607   0.58806   0.38420 
C          C       0.96393   0.41194   0.38420 
C          C       0.03607   0.41194   0.38420 
C          C       0.96393   0.58806   0.38420 
C          C       0.46393   0.91194   0.11580 
C          C       0.53607   0.08806   0.11580 
C          C       0.42787   0.11431   0.09889 
C          C       0.57213   0.88569   0.09889 
C          C       0.07213   0.61431   0.40111 
C          C       0.92787   0.38569   0.40111 
C          C       0.07213   0.38569   0.40111 
C          C       0.92787   0.61431   0.40111 
C          C       0.42787   0.88569   0.09889 
C          C       0.57213   0.11431   0.09889 
C          C       0.42505   0.15220   0.18313 
C          C       0.57495   0.84780   0.18313 
C          C       0.07495   0.65220   0.31688 
C          C       0.92505   0.34780   0.31688 
C          C       0.07495   0.34780   0.31688 
C          C       0.92505   0.65220   0.31688 
C          C       0.42505   0.84780   0.18313 
C          C       0.57495   0.15220   0.18313 
C          C       0.39247   0.17791   0.16384 
C          C       0.60753   0.82209   0.16384 
C          C       0.10753   0.67791   0.33616 
C          C       0.89247   0.32209   0.33616 
C          C       0.10753   0.32209   0.33616 
C          C       0.89247   0.67791   0.33616 
C          C       0.39247   0.82209   0.16384 
C          C       0.60753   0.17791   0.16384 
C          C       0.36139   0.16590   0.06281 
C          C       0.63861   0.83410   0.06281 
C          C       0.13861   0.66590   0.43719 
C          C       0.86139   0.33410   0.43719 
C          C       0.13861   0.33410   0.43719 
C          C       0.86139   0.66590   0.43719 
C          C       0.36139   0.83410   0.06281 
C          C       0.63861   0.16590   0.06281 
C          C       0.36413   0.12847   0.47738 
C          C       0.63587   0.87153   0.47738 
C          C       0.13587   0.62847   0.02262 
C          C       0.86413   0.37153   0.02262 
C          C       0.13587   0.37153   0.02262 
C          C       0.86413   0.62847   0.02262 
C          C       0.36413   0.87153   0.47738 
C          C       0.63587   0.12847   0.47738 
C          C       0.39755   0.10379   0.49062 
C          C       0.60245   0.89621   0.49062 
C          C       0.10245   0.60379   0.00938 
C          C       0.89755   0.39621   0.00938 
C          C       0.10245   0.39621   0.00938 
C          C       0.89755   0.60379   0.00938 
C          C       0.39755   0.89621   0.49062 
C          C       0.60245   0.10379   0.49062 
C          C       0.32645   0.19238   0.04345 
C          C       0.67355   0.80762   0.04345 
C          C       0.17355   0.69238   0.45655 
C          C       0.82645   0.30762   0.45655 
C          C       0.17355   0.30762   0.45655 
C          C       0.82645   0.69238   0.45655 
C          C       0.32645   0.80762   0.04345 
C          C       0.67355   0.19238   0.04345 
C          C       0.78665   0.25673   0.43915 
C          C       0.21335   0.74327   0.43915 
C          C       0.71335   0.75673   0.06085 
C          C       0.28665   0.24327   0.06085 
C          C       0.71335   0.24327   0.06085 
C          C       0.28665   0.75673   0.06085 
C          C       0.78665   0.74327   0.43915 
C          C       0.21335   0.25673   0.43915 
C          C       0.76852   0.21894   0.40221 
C          C       0.23148   0.78106   0.40221 
C          C       0.73148   0.71894   0.09778 
C          C       0.26852   0.28106   0.09778 
C          C       0.73148   0.28106   0.09778 
C          C       0.26852   0.71894   0.09778 
C          C       0.76852   0.78106   0.40221 
C          C       0.23148   0.21894   0.40221 
N          N       0.32382   0.22901   0.10956 
N          N       0.67618   0.77099   0.10956 
N          N       0.17618   0.72901   0.39044 
N          N       0.82382   0.27099   0.39044 
N          N       0.17618   0.27099   0.39044 
N          N       0.82382   0.72901   0.39044 
N          N       0.32382   0.77099   0.10956 
N          N       0.67618   0.22901   0.10956 
C          C       0.26903   0.78648   0.46738 
C          C       0.73097   0.21352   0.46738 
C          C       0.23097   0.28648   0.03263 
C          C       0.76903   0.71352   0.03263 
C          C       0.23097   0.71352   0.03263 
C          C       0.76903   0.28648   0.03263 
C          C       0.26903   0.21352   0.46738 
C          C       0.73097   0.78648   0.46738 
O          O       0.79369   0.67971   0.04878 
O          O       0.20631   0.32029   0.04878 
O          O       0.70631   0.17971   0.45122 
O          O       0.29369   0.82029   0.45122 
O          O       0.70631   0.82029   0.45122 
O          O       0.29369   0.17971   0.45122 
O          O       0.79369   0.32029   0.04878 
O          O       0.20631   0.67971   0.04878 
H          H       0.40119   0.03613   0.13759 
H          H       0.59881   0.96387   0.13759 
H          H       0.09881   0.53613   0.36241 
H          H       0.90119   0.46387   0.36241 
H          H       0.09881   0.46387   0.36241 
H          H       0.90119   0.53613   0.36241 
H          H       0.40119   0.96387   0.13759 
H          H       0.59881   0.03613   0.13759 
H          H       0.44785   0.16169   0.26669 
H          H       0.55215   0.83831   0.26669 
H          H       0.05215   0.66169   0.23332 
H          H       0.94785   0.33831   0.23332 
H          H       0.05215   0.33831   0.23332 
H          H       0.94785   0.66169   0.23332 
H          H       0.44785   0.83831   0.26669 
H          H       0.55215   0.16169   0.26669 
H          H       0.39125   0.20669   0.23122 
H          H       0.60875   0.79331   0.23122 
H          H       0.10875   0.70669   0.26878 
H          H       0.89125   0.29331   0.26878 
H          H       0.10875   0.29331   0.26878 
H          H       0.89125   0.70669   0.26878 
H          H       0.39125   0.79331   0.23122 
H          H       0.60875   0.20669   0.23122 
H          H       0.34109   0.11898   0.39498 
H          H       0.65891   0.88102   0.39498 
H          H       0.15891   0.61898   0.10502 
H          H       0.84109   0.38102   0.10502 
H          H       0.15891   0.38102   0.10502 
H          H       0.84109   0.61898   0.10502 
H          H       0.34109   0.88102   0.39498 
H          H       0.65891   0.11898   0.39498 
H          H       0.39987   0.07690   0.41286 
H          H       0.60013   0.92310   0.41286 
H          H       0.10013   0.57690   0.08714 
H          H       0.89987   0.42310   0.08714 
H          H       0.10013   0.42310   0.08714 
H          H       0.89987   0.57690   0.08714 
H          H       0.39987   0.92310   0.41286 
H          H       0.60013   0.07690   0.41286 
H          H       0.78244   0.19563   0.32755 
H          H       0.21756   0.80437   0.32755 
H          H       0.71756   0.69563   0.17245 
H          H       0.28244   0.30437   0.17245 
H          H       0.71756   0.30437   0.17245 
H          H       0.28244   0.69563   0.17245 
H          H       0.78244   0.80437   0.32755 
H          H       0.21756   0.19563   0.32755 
C          C       0.50000   0.10850   0.11532 
C          C       0.50000   0.89150   0.11532 
C          C       0.00000   0.60850   0.38467 
C          C       0.00000   0.39150   0.38467 
C          C       0.50000   0.97790   0.11676 
C          C       0.50000   0.02210   0.11676 
C          C       0.00000   0.47790   0.38324 
C          C       0.00000   0.52210   0.38324 
H          H       0.50000   0.14190   0.10210 
H          H       0.50000   0.85810   0.10210 
H          H      -0.00000   0.64190   0.39790 
H          H       0.00000   0.35810   0.39790 
C          C       0.46403   0.95591   0.61694 
C          C       0.53597   0.04409   0.61694 
C          C       0.03597   0.45591   0.88306 
C          C       0.96403   0.54409   0.88306 
C          C       0.03597   0.54409   0.88306 
C          C       0.96403   0.45591   0.88306 
C          C       0.46403   0.04409   0.61694 
C          C       0.53597   0.95591   0.61694 
C          C       0.42920   0.02148   0.61924 
C          C       0.57080   0.97852   0.61924 
C          C       0.07080   0.52148   0.88077 
C          C       0.92920   0.47852   0.88077 
C          C       0.07080   0.47852   0.88077 
C          C       0.92920   0.52148   0.88077 
C          C       0.42920   0.97852   0.61924 
C          C       0.57080   0.02148   0.61924 
C          C       0.46393   0.08806   0.61580 
C          C       0.53607   0.91194   0.61580 
C          C       0.03607   0.58806   0.88420 
C          C       0.96393   0.41194   0.88420 
C          C       0.03607   0.41194   0.88420 
C          C       0.96393   0.58806   0.88420 
C          C       0.46393   0.91194   0.61580 
C          C       0.53607   0.08806   0.61580 
C          C       0.42787   0.11431   0.59889 
C          C       0.57213   0.88569   0.59889 
C          C       0.07213   0.61431   0.90111 
C          C       0.92787   0.38569   0.90111 
C          C       0.07213   0.38569   0.90111 
C          C       0.92787   0.61431   0.90111 
C          C       0.42787   0.88569   0.59889 
C          C       0.57213   0.11431   0.59889 
C          C       0.42505   0.15220   0.68313 
C          C       0.57495   0.84780   0.68313 
C          C       0.07495   0.65220   0.81688 
C          C       0.92505   0.34780   0.81688 
C          C       0.07495   0.34780   0.81688 
C          C       0.92505   0.65220   0.81688 
C          C       0.42505   0.84780   0.68313 
C          C       0.57495   0.15220   0.68313 
C          C       0.39247   0.17791   0.66384 
C          C       0.60753   0.82209   0.66384 
C          C       0.10753   0.67791   0.83617 
C          C       0.89247   0.32209   0.83617 
C          C       0.10753   0.32209   0.83617 
C          C       0.89247   0.67791   0.83617 
C          C       0.39247   0.82209   0.66384 
C          C       0.60753   0.17791   0.66384 
C          C       0.36139   0.16590   0.56281 
C          C       0.63861   0.83410   0.56281 
C          C       0.13861   0.66590   0.93719 
C          C       0.86139   0.33410   0.93719 
C          C       0.13861   0.33410   0.93719 
C          C       0.86139   0.66590   0.93719 
C          C       0.36139   0.83410   0.56281 
C          C       0.63861   0.16590   0.56281 
C          C       0.36413   0.12847   0.97737 
C          C       0.63587   0.87153   0.97737 
C          C       0.13587   0.62847   0.52263 
C          C       0.86413   0.37153   0.52263 
C          C       0.13587   0.37153   0.52263 
C          C       0.86413   0.62847   0.52263 
C          C       0.36413   0.87153   0.97737 
C          C       0.63587   0.12847   0.97737 
C          C       0.39755   0.10379   0.99062 
C          C       0.60245   0.89621   0.99062 
C          C       0.10245   0.60379   0.50938 
C          C       0.89755   0.39621   0.50938 
C          C       0.10245   0.39621   0.50938 
C          C       0.89755   0.60379   0.50938 
C          C       0.39755   0.89621   0.99062 
C          C       0.60245   0.10379   0.99062 
C          C       0.32645   0.19238   0.54345 
C          C       0.67355   0.80762   0.54345 
C          C       0.17355   0.69238   0.95655 
C          C       0.82645   0.30762   0.95655 
C          C       0.17355   0.30762   0.95655 
C          C       0.82645   0.69238   0.95655 
C          C       0.32645   0.80762   0.54345 
C          C       0.67355   0.19238   0.54345 
C          C       0.78665   0.25673   0.93915 
C          C       0.21335   0.74327   0.93915 
C          C       0.71335   0.75673   0.56085 
C          C       0.28665   0.24327   0.56085 
C          C       0.71335   0.24327   0.56085 
C          C       0.28665   0.75673   0.56085 
C          C       0.78665   0.74327   0.93915 
C          C       0.21335   0.25673   0.93915 
C          C       0.76852   0.21894   0.90221 
C          C       0.23148   0.78106   0.90221 
C          C       0.73148   0.71894   0.59779 
C          C       0.26852   0.28106   0.59779 
C          C       0.73148   0.28106   0.59779 
C          C       0.26852   0.71894   0.59779 
C          C       0.76852   0.78106   0.90221 
C          C       0.23148   0.21894   0.90221 
N          N       0.32382   0.22901   0.60956 
N          N       0.67618   0.77099   0.60956 
N          N       0.17618   0.72901   0.89044 
N          N       0.82382   0.27099   0.89044 
N          N       0.17618   0.27099   0.89044 
N          N       0.82382   0.72901   0.89044 
N          N       0.32382   0.77099   0.60956 
N          N       0.67618   0.22901   0.60956 
C          C       0.26903   0.78648   0.96738 
C          C       0.73097   0.21352   0.96738 
C          C       0.23097   0.28648   0.53263 
C          C       0.76903   0.71352   0.53263 
C          C       0.23097   0.71352   0.53263 
C          C       0.76903   0.28648   0.53263 
C          C       0.26903   0.21352   0.96738 
C          C       0.73097   0.78648   0.96738 
O          O       0.79369   0.67971   0.54878 
O          O       0.20631   0.32029   0.54878 
O          O       0.70631   0.17971   0.95122 
O          O       0.29369   0.82029   0.95122 
O          O       0.70631   0.82029   0.95122 
O          O       0.29369   0.17971   0.95122 
O          O       0.79369   0.32029   0.54878 
O          O       0.20631   0.67971   0.54878 
H          H       0.40119   0.03613   0.63760 
H          H       0.59881   0.96387   0.63760 
H          H       0.09881   0.53613   0.86241 
H          H       0.90119   0.46387   0.86241 
H          H       0.09881   0.46387   0.86241 
H          H       0.90119   0.53613   0.86241 
H          H       0.40119   0.96387   0.63760 
H          H       0.59881   0.03613   0.63760 
H          H       0.44785   0.16169   0.76669 
H          H       0.55215   0.83831   0.76669 
H          H       0.05215   0.66169   0.73332 
H          H       0.94785   0.33831   0.73332 
H          H       0.05215   0.33831   0.73332 
H          H       0.94785   0.66169   0.73332 
H          H       0.44785   0.83831   0.76669 
H          H       0.55215   0.16169   0.76669 
H          H       0.39125   0.20669   0.73122 
H          H       0.60875   0.79331   0.73122 
H          H       0.10875   0.70669   0.76878 
H          H       0.89125   0.29331   0.76878 
H          H       0.10875   0.29331   0.76878 
H          H       0.89125   0.70669   0.76878 
H          H       0.39125   0.79331   0.73122 
H          H       0.60875   0.20669   0.73122 
H          H       0.34109   0.11898   0.89498 
H          H       0.65891   0.88102   0.89498 
H          H       0.15891   0.61898   0.60502 
H          H       0.84109   0.38102   0.60502 
H          H       0.15891   0.38102   0.60502 
H          H       0.84109   0.61898   0.60502 
H          H       0.34109   0.88102   0.89498 
H          H       0.65891   0.11898   0.89498 
H          H       0.39987   0.07690   0.91286 
H          H       0.60013   0.92310   0.91286 
H          H       0.10013   0.57690   0.58713 
H          H       0.89987   0.42310   0.58713 
H          H       0.10013   0.42310   0.58713 
H          H       0.89987   0.57690   0.58713 
H          H       0.39987   0.92310   0.91286 
H          H       0.60013   0.07690   0.91286 
H          H       0.78244   0.19563   0.82755 
H          H       0.21756   0.80437   0.82755 
H          H       0.71756   0.69563   0.67245 
H          H       0.28244   0.30437   0.67245 
H          H       0.71756   0.30437   0.67245 
H          H       0.28244   0.69563   0.67245 
H          H       0.78244   0.80437   0.82755 
H          H       0.21756   0.19563   0.82755 
C          C       0.50000   0.10850   0.61533 
C          C       0.50000   0.89150   0.61533 
C          C       0.00000   0.60850   0.88467 
C          C       0.00000   0.39150   0.88467 
C          C       0.50000   0.97790   0.61676 
C          C       0.50000   0.02210   0.61676 
C          C       0.00000   0.47790   0.88324 
C          C       0.00000   0.52210   0.88324 
H          H       0.50000   0.14190   0.60210 
H          H       0.50000   0.85810   0.60210 
H          H       0.00000   0.64190   0.89790 
H          H       0.00000   0.35810   0.89790 
