data_crystal

_cell_length_a    24.00000
_cell_length_b    24.00000
_cell_length_c    9.00000
_cell_angle_alpha 90.00000
_cell_angle_beta  90.00000
_cell_angle_gamma 90.00000

_space_group_name_Hall 'P 1'
_space_group_name_H-M_alt  'P 1'

loop_
_symmetry_equiv_pos_as_xyz
'x,y,z' 

loop_
_atom_site_label
_atom_site_type_symbol
_atom_site_fract_x
_atom_site_fract_y
_atom_site_fract_z
C          C       0.81065   0.98625   0.74789 
C          C       0.68935   0.51375   0.24789 
C          C       0.01375   0.31065   0.99789 
C          C       0.48625   0.18935   0.49789 
C          C       0.18935   0.51375   0.50211 
C          C       0.31065   0.98625   0.00211 
C          C       0.98625   0.18935   0.25211 
C          C       0.51375   0.31065   0.75211 
C          C       0.31065   0.48625   0.24789 
C          C       0.18935   0.01375   0.74789 
C          C       0.51375   0.81065   0.49789 
C          C       0.98625   0.68935   0.99789 
C          C       0.68935   0.01375   0.00211 
C          C       0.81065   0.48625   0.50211 
C          C       0.48625   0.68935   0.75211 
C          C       0.01375   0.81065   0.25211 
C          C       0.79582   0.04052   0.69060 
C          C       0.70418   0.45948   0.19060 
C          C       0.95948   0.29582   0.94060 
C          C       0.54052   0.20418   0.44060 
C          C       0.20418   0.45948   0.55940 
C          C       0.29582   0.04052   0.05940 
C          C       0.04052   0.20418   0.30940 
C          C       0.45948   0.29582   0.80940 
C          C       0.29582   0.54052   0.19060 
C          C       0.20418   0.95948   0.69060 
C          C       0.45948   0.79582   0.44060 
C          C       0.04052   0.70418   0.94060 
C          C       0.70418   0.95948   0.05940 
C          C       0.79582   0.54052   0.55940 
C          C       0.54052   0.70418   0.80940 
C          C       0.95948   0.79582   0.30940 
C          C       0.77195   0.04586   0.54423 
C          C       0.72805   0.45414   0.04423 
C          C       0.95414   0.27195   0.79423 
C          C       0.54586   0.22805   0.29423 
C          C       0.22805   0.45414   0.70577 
C          C       0.27195   0.04586   0.20577 
C          C       0.04586   0.22805   0.45577 
C          C       0.45414   0.27195   0.95577 
C          C       0.27195   0.54586   0.04423 
C          C       0.22805   0.95414   0.54423 
C          C       0.45414   0.77195   0.29423 
C          C       0.04586   0.72805   0.79423 
C          C       0.72805   0.95414   0.20577 
C          C       0.77195   0.54586   0.70577 
C          C       0.54586   0.72805   0.95577 
C          C       0.95414   0.77195   0.45577 
C          C       0.76270   0.99720   0.45253 
C          C       0.73730   0.50280   0.95253 
C          C       0.00280   0.26270   0.70253 
C          C       0.49720   0.23730   0.20253 
C          C       0.23730   0.50280   0.79747 
C          C       0.26270   0.99720   0.29747 
C          C       0.99720   0.23730   0.54747 
C          C       0.50280   0.26270   0.04747 
C          C       0.26270   0.49720   0.95253 
C          C       0.23730   0.00280   0.45253 
C          C       0.50280   0.76270   0.20253 
C          C       0.99720   0.73730   0.70253 
C          C       0.73730   0.00280   0.29747 
C          C       0.76270   0.49720   0.79747 
C          C       0.49720   0.73730   0.04747 
C          C       0.00280   0.76270   0.54747 
C          C       0.77778   0.94310   0.51052 
C          C       0.72222   0.55690   0.01052 
C          C       0.05690   0.27778   0.76052 
C          C       0.44310   0.22222   0.26052 
C          C       0.22222   0.55690   0.73948 
C          C       0.27778   0.94310   0.23948 
C          C       0.94310   0.22222   0.48948 
C          C       0.55690   0.27778   0.98948 
C          C       0.27778   0.44310   0.01052 
C          C       0.22222   0.05690   0.51052 
C          C       0.55690   0.77778   0.26052 
C          C       0.94310   0.72222   0.76052 
C          C       0.72222   0.05690   0.23948 
C          C       0.77778   0.44310   0.73948 
C          C       0.44310   0.72222   0.98948 
C          C       0.05690   0.77778   0.48948 
C          C       0.80162   0.93773   0.65692 
C          C       0.69838   0.56227   0.15692 
C          C       0.06227   0.30162   0.90692 
C          C       0.43773   0.19838   0.40692 
C          C       0.19838   0.56227   0.59308 
C          C       0.30162   0.93773   0.09308 
C          C       0.93773   0.19838   0.34308 
C          C       0.56227   0.30162   0.84308 
C          C       0.30162   0.43773   0.15692 
C          C       0.19838   0.06227   0.65692 
C          C       0.56227   0.80162   0.40692 
C          C       0.93773   0.69838   0.90692 
C          C       0.69838   0.06227   0.09308 
C          C       0.80162   0.43773   0.59308 
C          C       0.43773   0.69838   0.84308 
C          C       0.06227   0.80162   0.34308 
N          N       0.83730   0.97950   0.89472 
N          N       0.66270   0.52050   0.39472 
N          N       0.02050   0.33730   0.14472 
N          N       0.47950   0.16270   0.64472 
N          N       0.16270   0.52050   0.35528 
N          N       0.33730   0.97950   0.85528 
N          N       0.97950   0.16270   0.10528 
N          N       0.52050   0.33730   0.60528 
N          N       0.33730   0.47950   0.39472 
N          N       0.16270   0.02050   0.89472 
N          N       0.52050   0.83730   0.64472 
N          N       0.97950   0.66270   0.14472 
N          N       0.66270   0.02050   0.85528 
N          N       0.83730   0.47950   0.35528 
N          N       0.47950   0.66270   0.60528 
N          N       0.02050   0.83730   0.10528 
C          C       0.84368   0.02125   0.99141 
C          C       0.65632   0.47875   0.49141 
C          C       0.97875   0.34368   0.24141 
C          C       0.52125   0.15632   0.74141 
C          C       0.15632   0.47875   0.25859 
C          C       0.34368   0.02125   0.75859 
C          C       0.02125   0.15632   0.00859 
C          C       0.47875   0.34368   0.50859 
C          C       0.34368   0.52125   0.49141 
C          C       0.15632   0.97875   0.99141 
C          C       0.47875   0.84368   0.74141 
C          C       0.02125   0.65632   0.24141 
C          C       0.65632   0.97875   0.75859 
C          C       0.84368   0.52125   0.25859 
C          C       0.52125   0.65632   0.50859 
C          C       0.97875   0.84368   0.00859 
C          C       0.87483   0.01298   0.13569 
C          C       0.62517   0.48702   0.63569 
C          C       0.98702   0.37483   0.38569 
C          C       0.51298   0.12517   0.88569 
C          C       0.12517   0.48702   0.11431 
C          C       0.37483   0.01298   0.61431 
C          C       0.01298   0.12517   0.86431 
C          C       0.48702   0.37483   0.36431 
C          C       0.37483   0.51298   0.63569 
C          C       0.12517   0.98702   0.13569 
C          C       0.48702   0.87483   0.88569 
C          C       0.01298   0.62517   0.38569 
C          C       0.62517   0.98702   0.61431 
C          C       0.87483   0.51298   0.11431 
C          C       0.51298   0.62517   0.36431 
C          C       0.98702   0.87483   0.86431 
C          C       0.89948   0.95996   0.17178 
C          C       0.60052   0.54004   0.67178 
C          C       0.04004   0.39948   0.42178 
C          C       0.45996   0.10052   0.92178 
C          C       0.10052   0.54004   0.07822 
C          C       0.39948   0.95996   0.57822 
C          C       0.95996   0.10052   0.82822 
C          C       0.54004   0.39948   0.32822 
C          C       0.39948   0.45996   0.67178 
C          C       0.10052   0.04004   0.17178 
C          C       0.54004   0.89948   0.92178 
C          C       0.95996   0.60052   0.42178 
C          C       0.60052   0.04004   0.57822 
C          C       0.89948   0.45996   0.07822 
C          C       0.45996   0.60052   0.32822 
C          C       0.04004   0.89948   0.82822 
C          C       0.93597   0.95496   0.29793 
C          C       0.56403   0.54504   0.79793 
C          C       0.04504   0.43597   0.54793 
C          C       0.45496   0.06403   0.04793 
C          C       0.06403   0.54504   0.95207 
C          C       0.43597   0.95496   0.45207 
C          C       0.95496   0.06403   0.70207 
C          C       0.54504   0.43597   0.20207 
C          C       0.43597   0.45496   0.79793 
C          C       0.06403   0.04504   0.29793 
C          C       0.54504   0.93597   0.04793 
C          C       0.95496   0.56403   0.54793 
C          C       0.56403   0.04504   0.45207 
C          C       0.93597   0.45496   0.95207 
C          C       0.45496   0.56403   0.20207 
C          C       0.04504   0.93597   0.70207 
C          C       0.94824   0.00267   0.39137 
C          C       0.55176   0.49733   0.89137 
C          C       0.99733   0.44824   0.64137 
C          C       0.50267   0.05176   0.14137 
C          C       0.05176   0.49733   0.85863 
C          C       0.44824   0.00267   0.35863 
C          C       0.00267   0.05176   0.60863 
C          C       0.49733   0.44824   0.10863 
C          C       0.44824   0.50267   0.89137 
C          C       0.05176   0.99733   0.39137 
C          C       0.49733   0.94824   0.14137 
C          C       0.00267   0.55176   0.64137 
C          C       0.55176   0.99733   0.35863 
C          C       0.94824   0.50267   0.85863 
C          C       0.50267   0.55176   0.10863 
C          C       0.99733   0.94824   0.60863 
C          C       0.92154   0.05519   0.35669 
C          C       0.57846   0.44481   0.85669 
C          C       0.94481   0.42154   0.60669 
C          C       0.55519   0.07846   0.10669 
C          C       0.07846   0.44481   0.89331 
C          C       0.42154   0.05519   0.39331 
C          C       0.05519   0.07846   0.64331 
C          C       0.44481   0.42154   0.14331 
C          C       0.42154   0.55519   0.85669 
C          C       0.07846   0.94481   0.35669 
C          C       0.44481   0.92154   0.10669 
C          C       0.05519   0.57846   0.60669 
C          C       0.57846   0.94481   0.39331 
C          C       0.92154   0.55519   0.89331 
C          C       0.55519   0.57846   0.14331 
C          C       0.94481   0.92154   0.64331 
C          C       0.88493   0.06021   0.23041 
C          C       0.61507   0.43979   0.73041 
C          C       0.93979   0.38493   0.48041 
C          C       0.56021   0.11507   0.98041 
C          C       0.11507   0.43979   0.01959 
C          C       0.38493   0.06021   0.51959 
C          C       0.06021   0.11507   0.76959 
C          C       0.43979   0.38493   0.26959 
C          C       0.38493   0.56021   0.73041 
C          C       0.11507   0.93979   0.23041 
C          C       0.43979   0.88493   0.98041 
C          C       0.06021   0.61507   0.48041 
C          C       0.61507   0.93979   0.51959 
C          C       0.88493   0.56021   0.01959 
C          C       0.56021   0.61507   0.26959 
C          C       0.93979   0.88493   0.76959 
H          H       0.80548   0.07112   0.77138 
H          H       0.69452   0.42888   0.27138 
H          H       0.92888   0.30548   0.02138 
H          H       0.57112   0.19452   0.52138 
H          H       0.19452   0.42888   0.47862 
H          H       0.30548   0.07112   0.97862 
H          H       0.07112   0.19452   0.22862 
H          H       0.42888   0.30548   0.72862 
H          H       0.30548   0.57112   0.27138 
H          H       0.19452   0.92888   0.77138 
H          H       0.42888   0.80548   0.52138 
H          H       0.07112   0.69452   0.02138 
H          H       0.69452   0.92888   0.97862 
H          H       0.80548   0.57112   0.47862 
H          H       0.57112   0.69452   0.72862 
H          H       0.92888   0.80548   0.22862 
H          H       0.76126   0.08097   0.50129 
H          H       0.73874   0.41903   0.00129 
H          H       0.91903   0.26126   0.75129 
H          H       0.58097   0.23874   0.25129 
H          H       0.23874   0.41903   0.74871 
H          H       0.26126   0.08097   0.24871 
H          H       0.08097   0.23874   0.49871 
H          H       0.41903   0.26126   0.99871 
H          H       0.26126   0.58097   0.00129 
H          H       0.23874   0.91903   0.50129 
H          H       0.41903   0.76126   0.25129 
H          H       0.08097   0.73874   0.75129 
H          H       0.73874   0.91903   0.24871 
H          H       0.76126   0.58097   0.74871 
H          H       0.58097   0.73874   0.99871 
H          H       0.91903   0.76126   0.49871 
H          H       0.76753   0.91346   0.42568 
H          H       0.73247   0.58654   0.92568 
H          H       0.08654   0.26753   0.67568 
H          H       0.41346   0.23247   0.17568 
H          H       0.23247   0.58654   0.82432 
H          H       0.26753   0.91346   0.32432 
H          H       0.91346   0.23247   0.57432 
H          H       0.58654   0.26753   0.07432 
H          H       0.26753   0.41346   0.92568 
H          H       0.23247   0.08654   0.42568 
H          H       0.58654   0.76753   0.17568 
H          H       0.91346   0.73247   0.67568 
H          H       0.73247   0.08654   0.32432 
H          H       0.76753   0.41346   0.82432 
H          H       0.41346   0.73247   0.07432 
H          H       0.08654   0.76753   0.57432 
H          H       0.81233   0.90263   0.69973 
H          H       0.68767   0.59737   0.19973 
H          H       0.09737   0.31233   0.94973 
H          H       0.40263   0.18767   0.44973 
H          H       0.18767   0.59737   0.55027 
H          H       0.31233   0.90263   0.05027 
H          H       0.90263   0.18767   0.30027 
H          H       0.59737   0.31233   0.80027 
H          H       0.31233   0.40263   0.19973 
H          H       0.18767   0.09737   0.69973 
H          H       0.59737   0.81233   0.44973 
H          H       0.90263   0.68767   0.94973 
H          H       0.68767   0.09737   0.05027 
H          H       0.81233   0.40263   0.55027 
H          H       0.40263   0.68767   0.80027 
H          H       0.09737   0.81233   0.30027 
H          H       0.82890   0.05625   0.97101 
H          H       0.67110   0.44375   0.47101 
H          H       0.94375   0.32890   0.22101 
H          H       0.55625   0.17110   0.72101 
H          H       0.17110   0.44375   0.27899 
H          H       0.32890   0.05625   0.77899 
H          H       0.05625   0.17110   0.02899 
H          H       0.44375   0.32890   0.52899 
H          H       0.32890   0.55625   0.47101 
H          H       0.17110   0.94375   0.97101 
H          H       0.44375   0.82890   0.72101 
H          H       0.05625   0.67110   0.22101 
H          H       0.67110   0.94375   0.77899 
H          H       0.82890   0.55625   0.27899 
H          H       0.55625   0.67110   0.52899 
H          H       0.94375   0.82890   0.02899 
H          H       0.88710   0.92933   0.09694 
H          H       0.61290   0.57067   0.59694 
H          H       0.07067   0.38710   0.34694 
H          H       0.42933   0.11290   0.84694 
H          H       0.11290   0.57067   0.15306 
H          H       0.38710   0.92933   0.65306 
H          H       0.92933   0.11290   0.90306 
H          H       0.57067   0.38710   0.40306 
H          H       0.38710   0.42933   0.59694 
H          H       0.11290   0.07067   0.09694 
H          H       0.57067   0.88710   0.84694 
H          H       0.92933   0.61290   0.34694 
H          H       0.61290   0.07067   0.65306 
H          H       0.88710   0.42933   0.15306 
H          H       0.42933   0.61290   0.40306 
H          H       0.07067   0.88710   0.90306 
H          H       0.95517   0.92312   0.33418 
H          H       0.54483   0.57688   0.83418 
H          H       0.07688   0.45517   0.58418 
H          H       0.42312   0.04483   0.08418 
H          H       0.04483   0.57688   0.91582 
H          H       0.45517   0.92312   0.41582 
H          H       0.92312   0.04483   0.66582 
H          H       0.57688   0.45517   0.16582 
H          H       0.45517   0.42312   0.83418 
H          H       0.04483   0.07688   0.33418 
H          H       0.57688   0.95517   0.08418 
H          H       0.92312   0.54483   0.58418 
H          H       0.54483   0.07688   0.41582 
H          H       0.95517   0.42312   0.91582 
H          H       0.42312   0.54483   0.16582 
H          H       0.07688   0.95517   0.66582 
H          H       0.93268   0.08604   0.43313 
H          H       0.56732   0.41396   0.93313 
H          H       0.91396   0.43268   0.68313 
H          H       0.58604   0.06732   0.18313 
H          H       0.06732   0.41396   0.81687 
H          H       0.43268   0.08604   0.31687 
H          H       0.08604   0.06732   0.56687 
H          H       0.41396   0.43268   0.06687 
H          H       0.43268   0.58604   0.93313 
H          H       0.06732   0.91396   0.43313 
H          H       0.41396   0.93268   0.18313 
H          H       0.08604   0.56732   0.68313 
H          H       0.56732   0.91396   0.31687 
H          H       0.93268   0.58604   0.81687 
H          H       0.58604   0.56732   0.06687 
H          H       0.91396   0.93268   0.56687 
H          H       0.86811   0.09433   0.21155 
H          H       0.63189   0.40567   0.71155 
H          H       0.90567   0.36811   0.46155 
H          H       0.59433   0.13189   0.96155 
H          H       0.13189   0.40567   0.03845 
H          H       0.36811   0.09433   0.53845 
H          H       0.09433   0.13189   0.78845 
H          H       0.40567   0.36811   0.28845 
H          H       0.36811   0.59433   0.71155 
H          H       0.13189   0.90567   0.21155 
H          H       0.40567   0.86811   0.96155 
H          H       0.09433   0.63189   0.46155 
H          H       0.63189   0.90567   0.53845 
H          H       0.86811   0.59433   0.03845 
H          H       0.59433   0.63189   0.28845 
H          H       0.90567   0.86811   0.78845 
C          C       0.00000   0.00000   0.50000 
C          C       0.50000   0.50000   0.00000 
C          C       0.00000   0.50000   0.75000 
C          C       0.50000   0.00000   0.25000 
