data_crystal

_cell_length_a    23.77330
_cell_length_b    23.77330
_cell_length_c    13.46080
_cell_angle_alpha 90.00000
_cell_angle_beta  90.00000
_cell_angle_gamma 90.00000

_space_group_name_Hall 'P 1'
_space_group_name_H-M_alt  'P 1'

loop_
_symmetry_equiv_pos_as_xyz
'x,y,z' 

loop_
_atom_site_label
_atom_site_type_symbol
_atom_site_fract_x
_atom_site_fract_y
_atom_site_fract_z
C          C       0.44999   0.72186   0.60444 
C          C       0.05001   0.77814   0.10444 
C          C       0.27814   0.94999   0.85444 
C          C       0.22186   0.55001   0.35444 
C          C       0.55001   0.77814   0.64556 
C          C       0.94999   0.72186   0.14556 
C          C       0.72186   0.55001   0.39556 
C          C       0.77814   0.94999   0.89556 
C          C       0.94999   0.22186   0.10444 
C          C       0.55001   0.27814   0.60444 
C          C       0.77814   0.44999   0.35444 
C          C       0.72186   0.05001   0.85444 
C          C       0.05001   0.27814   0.14556 
C          C       0.44999   0.22186   0.64556 
C          C       0.22186   0.05001   0.89556 
C          C       0.27814   0.44999   0.39556 
C          C       0.49368   0.71470   0.53114 
C          C       0.00632   0.78530   0.03114 
C          C       0.28530   0.99368   0.78114 
C          C       0.21470   0.50632   0.28114 
C          C       0.50632   0.78530   0.71886 
C          C       0.99368   0.71470   0.21886 
C          C       0.71470   0.50632   0.46886 
C          C       0.78530   0.99368   0.96886 
C          C       0.99368   0.21470   0.03114 
C          C       0.50632   0.28530   0.53114 
C          C       0.78530   0.49368   0.28114 
C          C       0.71470   0.00632   0.78114 
C          C       0.00632   0.28530   0.21886 
C          C       0.49368   0.21470   0.71886 
C          C       0.21470   0.00632   0.96886 
C          C       0.28530   0.49368   0.46886 
N          N       0.48480   0.67849   0.43836 
N          N       0.01520   0.82151   0.93836 
N          N       0.32151   0.98480   0.68836 
N          N       0.17849   0.51520   0.18836 
N          N       0.51520   0.82151   0.81164 
N          N       0.98480   0.67849   0.31164 
N          N       0.67849   0.51520   0.56164 
N          N       0.82151   0.98480   0.06164 
N          N       0.98480   0.17849   0.93836 
N          N       0.51520   0.32151   0.43836 
N          N       0.82151   0.48480   0.18836 
N          N       0.67849   0.01520   0.68836 
N          N       0.01520   0.32151   0.31164 
N          N       0.48480   0.17849   0.81164 
N          N       0.17849   0.01520   0.06164 
N          N       0.32151   0.48480   0.56164 
C          C       0.54419   0.74429   0.55533 
C          C       0.95581   0.75571   0.05533 
C          C       0.25571   0.04419   0.80533 
C          C       0.24429   0.45581   0.30533 
C          C       0.45581   0.75571   0.69467 
C          C       0.04419   0.74429   0.19467 
C          C       0.74429   0.45581   0.44467 
C          C       0.75571   0.04419   0.94467 
C          C       0.04419   0.24429   0.05533 
C          C       0.45581   0.25571   0.55533 
C          C       0.75571   0.54419   0.30533 
C          C       0.74429   0.95581   0.80533 
C          C       0.95581   0.25571   0.19467 
C          C       0.54419   0.24429   0.69467 
C          C       0.24429   0.95581   0.94467 
C          C       0.25571   0.54419   0.44467 
C          C       0.51953   0.66587   0.36154 
C          C       0.98047   0.83413   0.86154 
C          C       0.33413   0.01953   0.61154 
C          C       0.16587   0.48047   0.11154 
C          C       0.48047   0.83413   0.88846 
C          C       0.01953   0.66587   0.38846 
C          C       0.66587   0.48047   0.63846 
C          C       0.83413   0.01953   0.13846 
C          C       0.01953   0.16587   0.86154 
C          C       0.48047   0.33413   0.36154 
C          C       0.83413   0.51953   0.11154 
C          C       0.66587   0.98047   0.61154 
C          C       0.98047   0.33413   0.38846 
C          C       0.51953   0.16587   0.88846 
C          C       0.16587   0.98047   0.13846 
C          C       0.33413   0.51953   0.63846 
C          C       0.50962   0.62733   0.26505 
C          C       0.99038   0.87267   0.76505 
C          C       0.37267   0.00962   0.51505 
C          C       0.12733   0.49038   0.01505 
C          C       0.49038   0.87267   0.98495 
C          C       0.00962   0.62733   0.48495 
C          C       0.62733   0.49038   0.73495 
C          C       0.87267   0.00962   0.23495 
C          C       0.00962   0.12733   0.76505 
C          C       0.49038   0.37267   0.26505 
C          C       0.87267   0.50962   0.01505 
C          C       0.62733   0.99038   0.51505 
C          C       0.99038   0.37267   0.48495 
C          C       0.50962   0.12733   0.98495 
C          C       0.12733   0.99038   0.23495 
C          C       0.37267   0.50962   0.73495 
C          C       0.55479   0.61762   0.19602 
C          C       0.94521   0.88238   0.69602 
C          C       0.38238   0.05479   0.44602 
C          C       0.11762   0.44521   0.94602 
C          C       0.44521   0.88238   0.05398 
C          C       0.05479   0.61762   0.55398 
C          C       0.61762   0.44521   0.80398 
C          C       0.88238   0.05479   0.30398 
C          C       0.05479   0.11762   0.69602 
C          C       0.44521   0.38238   0.19602 
C          C       0.88238   0.55479   0.94602 
C          C       0.61762   0.94521   0.44602 
C          C       0.94521   0.38238   0.55398 
C          C       0.55479   0.11762   0.05398 
C          C       0.11762   0.94521   0.30398 
C          C       0.38238   0.55479   0.80398 
C          C       0.55083   0.58163   0.10850 
C          C       0.94917   0.91837   0.60850 
C          C       0.41837   0.05083   0.35850 
C          C       0.08163   0.44917   0.85850 
C          C       0.44917   0.91837   0.14150 
C          C       0.05083   0.58163   0.64150 
C          C       0.58163   0.44917   0.89150 
C          C       0.91837   0.05083   0.39150 
C          C       0.05083   0.08163   0.60850 
C          C       0.44917   0.41837   0.10850 
C          C       0.91837   0.55083   0.85850 
C          C       0.58163   0.94917   0.35850 
C          C       0.94917   0.41837   0.64150 
C          C       0.55083   0.08163   0.14150 
C          C       0.08163   0.94917   0.39150 
C          C       0.41837   0.55083   0.89150 
C          C       0.50060   0.55273   0.07987 
C          C       0.44727   0.00060   0.32987 
C          C       0.05273   0.49940   0.82987 
C          C       0.49940   0.94727   0.17013 
C          C       0.00060   0.55273   0.67013 
C          C       0.55273   0.49940   0.92013 
C          C       0.94727   0.00060   0.42013 
C          C       0.00060   0.05273   0.57987 
C          C       0.49940   0.44727   0.07987 
C          C       0.94727   0.50060   0.82987 
C          C       0.50060   0.05273   0.17013 
C          C       0.44727   0.50060   0.92013 
C          C       0.45502   0.56281   0.14905 
C          C       0.04498   0.93719   0.64905 
C          C       0.43719   0.95502   0.39905 
C          C       0.06281   0.54498   0.89905 
C          C       0.54498   0.93719   0.10095 
C          C       0.95502   0.56281   0.60095 
C          C       0.56281   0.54498   0.85095 
C          C       0.93719   0.95502   0.35095 
C          C       0.95502   0.06281   0.64905 
C          C       0.54498   0.43719   0.14905 
C          C       0.93719   0.45502   0.89905 
C          C       0.56281   0.04498   0.39905 
C          C       0.04498   0.43719   0.60095 
C          C       0.45502   0.06281   0.10095 
C          C       0.06281   0.04498   0.35095 
C          C       0.43719   0.45502   0.85095 
C          C       0.45900   0.59882   0.23726 
C          C       0.04100   0.90118   0.73726 
C          C       0.40118   0.95900   0.48726 
C          C       0.09882   0.54100   0.98726 
C          C       0.54100   0.90118   0.01274 
C          C       0.95900   0.59882   0.51274 
C          C       0.59882   0.54100   0.76274 
C          C       0.90118   0.95900   0.26274 
C          C       0.95900   0.09882   0.73726 
C          C       0.54100   0.40118   0.23726 
C          C       0.90118   0.45900   0.98726 
C          C       0.59882   0.04100   0.48726 
C          C       0.04100   0.40118   0.51274 
C          C       0.45900   0.09882   0.01274 
C          C       0.09882   0.04100   0.26274 
C          C       0.40118   0.45900   0.76274 
H          H       0.40814   0.70056   0.59376 
H          H       0.09186   0.79944   0.09376 
H          H       0.29944   0.90814   0.84376 
H          H       0.20056   0.59186   0.34376 
H          H       0.59186   0.79944   0.65624 
H          H       0.90814   0.70056   0.15624 
H          H       0.70056   0.59186   0.40624 
H          H       0.79944   0.90814   0.90624 
H          H       0.90814   0.20056   0.09376 
H          H       0.59186   0.29944   0.59376 
H          H       0.79944   0.40814   0.34376 
H          H       0.70056   0.09186   0.84376 
H          H       0.09186   0.29944   0.15624 
H          H       0.40814   0.20056   0.65624 
H          H       0.20056   0.09186   0.90624 
H          H       0.29944   0.40814   0.40624 
H          H       0.58152   0.74192   0.50358 
H          H       0.91848   0.75808   0.00358 
H          H       0.25808   0.08152   0.75358 
H          H       0.24192   0.41848   0.25358 
H          H       0.41848   0.75808   0.74642 
H          H       0.08152   0.74192   0.24642 
H          H       0.74192   0.41848   0.49642 
H          H       0.75808   0.08152   0.99642 
H          H       0.08152   0.24192   0.00358 
H          H       0.41848   0.25808   0.50358 
H          H       0.75808   0.58152   0.25358 
H          H       0.74192   0.91848   0.75358 
H          H       0.91848   0.25808   0.24642 
H          H       0.58152   0.24192   0.74642 
H          H       0.24192   0.91848   0.99642 
H          H       0.25808   0.58152   0.49642 
H          H       0.56335   0.68376   0.35959 
H          H       0.93665   0.81624   0.85959 
H          H       0.31624   0.06335   0.60959 
H          H       0.18376   0.43665   0.10959 
H          H       0.43665   0.81624   0.89041 
H          H       0.06335   0.68376   0.39041 
H          H       0.68376   0.43665   0.64041 
H          H       0.81624   0.06335   0.14041 
H          H       0.06335   0.18376   0.85959 
H          H       0.43665   0.31624   0.35959 
H          H       0.81624   0.56335   0.10959 
H          H       0.68376   0.93665   0.60959 
H          H       0.93665   0.31624   0.39041 
H          H       0.56335   0.18376   0.89041 
H          H       0.18376   0.93665   0.14041 
H          H       0.31624   0.56335   0.64041 
H          H       0.59669   0.63859   0.20811 
H          H       0.90331   0.86141   0.70811 
H          H       0.36141   0.09669   0.45811 
H          H       0.13859   0.40331   0.95811 
H          H       0.40331   0.86141   0.04189 
H          H       0.09669   0.63859   0.54189 
H          H       0.63859   0.40331   0.79189 
H          H       0.86141   0.09669   0.29189 
H          H       0.09669   0.13859   0.70811 
H          H       0.40331   0.36141   0.20811 
H          H       0.86141   0.59669   0.95811 
H          H       0.63859   0.90331   0.45811 
H          H       0.90331   0.36141   0.54189 
H          H       0.59669   0.13859   0.04189 
H          H       0.13859   0.90331   0.29189 
H          H       0.36141   0.59669   0.79189 
H          H       0.58863   0.57526   0.05894 
H          H       0.91137   0.92474   0.55894 
H          H       0.42474   0.08863   0.30894 
H          H       0.07526   0.41137   0.80894 
H          H       0.41137   0.92474   0.19106 
H          H       0.08863   0.57526   0.69106 
H          H       0.57526   0.41137   0.94106 
H          H       0.92474   0.08863   0.44106 
H          H       0.08863   0.07526   0.55894 
H          H       0.41137   0.42474   0.05894 
H          H       0.92474   0.58863   0.80894 
H          H       0.57526   0.91137   0.30894 
H          H       0.91137   0.42474   0.69106 
H          H       0.58863   0.07526   0.19106 
H          H       0.07526   0.91137   0.44106 
H          H       0.42474   0.58863   0.94106 
H          H       0.41297   0.54224   0.13652 
H          H       0.08703   0.95776   0.63652 
H          H       0.45776   0.91297   0.38652 
H          H       0.04224   0.58703   0.88652 
H          H       0.58703   0.95776   0.11348 
H          H       0.91297   0.54224   0.61348 
H          H       0.54224   0.58703   0.86348 
H          H       0.95776   0.91297   0.36348 
H          H       0.91297   0.04224   0.63652 
H          H       0.58703   0.45776   0.13652 
H          H       0.95776   0.41297   0.88652 
H          H       0.54224   0.08703   0.38652 
H          H       0.08703   0.45776   0.61348 
H          H       0.41297   0.04224   0.11348 
H          H       0.04224   0.08703   0.36348 
H          H       0.45776   0.41297   0.86348 
H          H       0.42000   0.60371   0.28432 
H          H       0.08000   0.89629   0.78432 
H          H       0.39629   0.92000   0.53432 
H          H       0.10371   0.58000   0.03432 
H          H       0.58000   0.89629   0.96568 
H          H       0.92000   0.60371   0.46568 
H          H       0.60371   0.58000   0.71568 
H          H       0.89629   0.92000   0.21568 
H          H       0.92000   0.10371   0.78432 
H          H       0.58000   0.39629   0.28432 
H          H       0.89629   0.42000   0.03432 
H          H       0.60371   0.08000   0.53432 
H          H       0.08000   0.39629   0.46568 
H          H       0.42000   0.10371   0.96568 
H          H       0.10371   0.08000   0.21568 
H          H       0.39629   0.42000   0.71568 
C          C       0.00000   0.50000   0.75000 
C          C       0.50000   0.00000   0.25000 
C          C       0.50000   0.50000   0.00000 
C          C       0.00000   0.00000   0.50000 
