data_crystal
 
_cell_length_a    33.97080
_cell_length_b    33.97080
_cell_length_c    7.62360
_cell_angle_alpha 90.00000
_cell_angle_beta  90.00000
_cell_angle_gamma 90.00000
 
_symmetry_space_group_name_Hall 'P 1'
_symmetry_space_group_name_H-M  'P 1'
 
loop_
_symmetry_equiv_pos_as_xyz
 'x,y,z' 
 
loop_
_atom_site_label
_atom_site_type_symbol
_atom_site_fract_x
_atom_site_fract_y
_atom_site_fract_z
_atom_site_charge
C          C       0.51514   0.66376   0.73394   0.0000000000
C          C       0.98486   0.83624   0.23394   0.0000000000
C          C       0.33624   0.01514   0.98394   0.0000000000
C          C       0.16376   0.48486   0.48394   0.0000000000
C          C       0.48486   0.83624   0.51606   0.0000000000
C          C       0.01514   0.66376   0.01606   0.0000000000
C          C       0.66376   0.48486   0.26606   0.0000000000
C          C       0.83624   0.01514   0.76606   0.0000000000
C          C       0.01514   0.16376   0.23394   0.0000000000
C          C       0.48486   0.33624   0.73394   0.0000000000
C          C       0.83624   0.51514   0.48394   0.0000000000
C          C       0.66376   0.98486   0.98394   0.0000000000
C          C       0.98486   0.33624   0.01606   0.0000000000
C          C       0.51514   0.16376   0.51606   0.0000000000
C          C       0.16376   0.98486   0.76606   0.0000000000
C          C       0.33624   0.51514   0.26606   0.0000000000
C          C       0.55744   0.67187   0.64384   0.0000000000
C          C       0.94256   0.82813   0.14384   0.0000000000
C          C       0.32813   0.05744   0.89384   0.0000000000
C          C       0.17187   0.44256   0.39384   0.0000000000
C          C       0.44256   0.82813   0.60616   0.0000000000
C          C       0.05744   0.67187   0.10616   0.0000000000
C          C       0.67187   0.44256   0.35616   0.0000000000
C          C       0.82813   0.05744   0.85616   0.0000000000
C          C       0.05744   0.17187   0.14384   0.0000000000
C          C       0.44256   0.32813   0.64384   0.0000000000
C          C       0.82813   0.55744   0.39384   0.0000000000
C          C       0.67187   0.94256   0.89384   0.0000000000
C          C       0.94256   0.32813   0.10616   0.0000000000
C          C       0.55744   0.17187   0.60616   0.0000000000
C          C       0.17187   0.94256   0.85616   0.0000000000
C          C       0.32813   0.55744   0.35616   0.0000000000
C          C       0.55367   0.69269   0.49456   0.0000000000
C          C       0.94633   0.80731   0.99456   0.0000000000
C          C       0.30731   0.05367   0.74456   0.0000000000
C          C       0.19269   0.44633   0.24456   0.0000000000
C          C       0.44633   0.80731   0.75544   0.0000000000
C          C       0.05367   0.69269   0.25544   0.0000000000
C          C       0.69269   0.44633   0.50544   0.0000000000
C          C       0.80731   0.05367   0.00544   0.0000000000
C          C       0.05367   0.19269   0.99456   0.0000000000
C          C       0.44633   0.30731   0.49456   0.0000000000
C          C       0.80731   0.55367   0.24456   0.0000000000
C          C       0.69269   0.94633   0.74456   0.0000000000
C          C       0.94633   0.30731   0.25544   0.0000000000
C          C       0.55367   0.19269   0.75544   0.0000000000
C          C       0.19269   0.94633   0.00544   0.0000000000
C          C       0.30731   0.55367   0.50544   0.0000000000
C          C       0.50742   0.70561   0.43263   0.0000000000
C          C       0.99258   0.79439   0.93263   0.0000000000
C          C       0.29439   0.00742   0.68263   0.0000000000
C          C       0.20561   0.49258   0.18263   0.0000000000
C          C       0.49258   0.79439   0.81737   0.0000000000
C          C       0.00742   0.70561   0.31737   0.0000000000
C          C       0.70561   0.49258   0.56737   0.0000000000
C          C       0.79439   0.00742   0.06737   0.0000000000
C          C       0.00742   0.20561   0.93263   0.0000000000
C          C       0.49258   0.29439   0.43263   0.0000000000
C          C       0.79439   0.50742   0.18263   0.0000000000
C          C       0.70561   0.99258   0.68263   0.0000000000
C          C       0.99258   0.29439   0.31737   0.0000000000
C          C       0.50742   0.20561   0.81737   0.0000000000
C          C       0.20561   0.99258   0.06737   0.0000000000
C          C       0.29439   0.50742   0.56737   0.0000000000
C          C       0.46495   0.69710   0.52319   0.0000000000
C          C       0.03505   0.80290   0.02319   0.0000000000
C          C       0.30290   0.96495   0.77319   0.0000000000
C          C       0.19710   0.53505   0.27319   0.0000000000
C          C       0.53505   0.80290   0.72681   0.0000000000
C          C       0.96495   0.69710   0.22681   0.0000000000
C          C       0.69710   0.53505   0.47681   0.0000000000
C          C       0.80290   0.96495   0.97681   0.0000000000
C          C       0.96495   0.19710   0.02319   0.0000000000
C          C       0.53505   0.30290   0.52319   0.0000000000
C          C       0.80290   0.46495   0.27319   0.0000000000
C          C       0.69710   0.03505   0.77319   0.0000000000
C          C       0.03505   0.30290   0.22681   0.0000000000
C          C       0.46495   0.19710   0.72681   0.0000000000
C          C       0.19710   0.03505   0.97681   0.0000000000
C          C       0.30290   0.46495   0.47681   0.0000000000
C          C       0.46870   0.67626   0.67254   0.0000000000
C          C       0.03130   0.82374   0.17254   0.0000000000
C          C       0.32374   0.96870   0.92254   0.0000000000
C          C       0.17626   0.53130   0.42254   0.0000000000
C          C       0.53130   0.82374   0.57746   0.0000000000
C          C       0.96870   0.67626   0.07746   0.0000000000
C          C       0.67626   0.53130   0.32746   0.0000000000
C          C       0.82374   0.96870   0.82746   0.0000000000
C          C       0.96870   0.17626   0.17254   0.0000000000
C          C       0.53130   0.32374   0.67254   0.0000000000
C          C       0.82374   0.46870   0.42254   0.0000000000
C          C       0.67626   0.03130   0.92254   0.0000000000
C          C       0.03130   0.32374   0.07746   0.0000000000
C          C       0.46870   0.17626   0.57746   0.0000000000
C          C       0.17626   0.03130   0.82746   0.0000000000
C          C       0.32374   0.46870   0.32746   0.0000000000
N          N       0.52018   0.64073   0.88402   0.0000000000
N          N       0.97982   0.85927   0.38402   0.0000000000
N          N       0.35927   0.02018   0.13402   0.0000000000
N          N       0.14073   0.47982   0.63402   0.0000000000
N          N       0.47982   0.85927   0.36598   0.0000000000
N          N       0.02018   0.64073   0.86598   0.0000000000
N          N       0.64073   0.47982   0.11598   0.0000000000
N          N       0.85927   0.02018   0.61598   0.0000000000
N          N       0.02018   0.14073   0.38402   0.0000000000
N          N       0.47982   0.35927   0.88402   0.0000000000
N          N       0.85927   0.52018   0.63402   0.0000000000
N          N       0.64073   0.97982   0.13402   0.0000000000
N          N       0.97982   0.35927   0.86598   0.0000000000
N          N       0.52018   0.14073   0.36598   0.0000000000
N          N       0.14073   0.97982   0.61598   0.0000000000
N          N       0.35927   0.52018   0.11598   0.0000000000
C          C       0.45744   0.74148   0.21324   0.0000000000
C          C       0.04256   0.75852   0.71324   0.0000000000
C          C       0.25852   0.95744   0.46324   0.0000000000
C          C       0.24148   0.54256   0.96324   0.0000000000
C          C       0.54256   0.75852   0.03676   0.0000000000
C          C       0.95744   0.74148   0.53676   0.0000000000
C          C       0.74148   0.54256   0.78676   0.0000000000
C          C       0.75852   0.95744   0.28676   0.0000000000
C          C       0.95744   0.24148   0.71324   0.0000000000
C          C       0.54256   0.25852   0.21324   0.0000000000
C          C       0.75852   0.45744   0.96324   0.0000000000
C          C       0.74148   0.04256   0.46324   0.0000000000
C          C       0.04256   0.25852   0.53676   0.0000000000
C          C       0.45744   0.24148   0.03676   0.0000000000
C          C       0.24148   0.04256   0.28676   0.0000000000
C          C       0.25852   0.45744   0.78676   0.0000000000
C          C       0.50359   0.72826   0.27507   0.0000000000
C          C       0.99641   0.77174   0.77507   0.0000000000
C          C       0.27174   0.00359   0.52507   0.0000000000
C          C       0.22826   0.49641   0.02507   0.0000000000
C          C       0.49641   0.77174   0.97493   0.0000000000
C          C       0.00359   0.72826   0.47493   0.0000000000
C          C       0.72826   0.49641   0.72493   0.0000000000
C          C       0.77174   0.00359   0.22493   0.0000000000
C          C       0.00359   0.22826   0.77507   0.0000000000
C          C       0.49641   0.27174   0.27507   0.0000000000
C          C       0.77174   0.50359   0.02507   0.0000000000
C          C       0.72826   0.99641   0.52507   0.0000000000
C          C       0.99641   0.27174   0.47493   0.0000000000
C          C       0.50359   0.22826   0.97493   0.0000000000
C          C       0.22826   0.99641   0.22493   0.0000000000
C          C       0.27174   0.50359   0.72493   0.0000000000
C          C       0.54611   0.73704   0.18519   0.0000000000
C          C       0.95389   0.76296   0.68519   0.0000000000
C          C       0.26296   0.04611   0.43519   0.0000000000
C          C       0.23704   0.45389   0.93519   0.0000000000
C          C       0.45389   0.76296   0.06481   0.0000000000
C          C       0.04611   0.73704   0.56481   0.0000000000
C          C       0.73704   0.45389   0.81481   0.0000000000
C          C       0.76296   0.04611   0.31481   0.0000000000
C          C       0.04611   0.23704   0.68519   0.0000000000
C          C       0.45389   0.26296   0.18519   0.0000000000
C          C       0.76296   0.54611   0.93519   0.0000000000
C          C       0.73704   0.95389   0.43519   0.0000000000
C          C       0.95389   0.26296   0.56481   0.0000000000
C          C       0.54611   0.23704   0.06481   0.0000000000
C          C       0.23704   0.95389   0.31481   0.0000000000
C          C       0.26296   0.54611   0.81481   0.0000000000
C          C       0.48381   0.63520   0.98115   0.0000000000
C          C       0.01619   0.86480   0.48115   0.0000000000
C          C       0.36480   0.98381   0.23115   0.0000000000
C          C       0.13520   0.51619   0.73115   0.0000000000
C          C       0.51619   0.86480   0.26885   0.0000000000
C          C       0.98381   0.63520   0.76885   0.0000000000
C          C       0.63520   0.51619   0.01885   0.0000000000
C          C       0.86480   0.98381   0.51885   0.0000000000
C          C       0.98381   0.13520   0.48115   0.0000000000
C          C       0.51619   0.36480   0.98115   0.0000000000
C          C       0.86480   0.48381   0.73115   0.0000000000
C          C       0.63520   0.01619   0.23115   0.0000000000
C          C       0.01619   0.36480   0.76885   0.0000000000
C          C       0.48381   0.13520   0.26885   0.0000000000
C          C       0.13520   0.01619   0.51885   0.0000000000
C          C       0.36480   0.48381   0.01885   0.0000000000
C          C       0.49033   0.60816   0.12841   0.0000000000
C          C       0.00967   0.89184   0.62841   0.0000000000
C          C       0.39184   0.99033   0.37841   0.0000000000
C          C       0.10816   0.50967   0.87841   0.0000000000
C          C       0.50967   0.89184   0.12159   0.0000000000
C          C       0.99033   0.60816   0.62159   0.0000000000
C          C       0.60816   0.50967   0.87159   0.0000000000
C          C       0.89184   0.99033   0.37159   0.0000000000
C          C       0.99033   0.10816   0.62841   0.0000000000
C          C       0.50967   0.39184   0.12841   0.0000000000
C          C       0.89184   0.49033   0.87841   0.0000000000
C          C       0.60816   0.00967   0.37841   0.0000000000
C          C       0.00967   0.39184   0.62159   0.0000000000
C          C       0.49033   0.10816   0.12159   0.0000000000
C          C       0.10816   0.00967   0.37159   0.0000000000
C          C       0.39184   0.49033   0.87159   0.0000000000
C          C       0.44932   0.59945   0.22368   0.0000000000
C          C       0.05068   0.90055   0.72368   0.0000000000
C          C       0.40055   0.94932   0.47368   0.0000000000
C          C       0.09945   0.55068   0.97368   0.0000000000
C          C       0.55068   0.90055   0.02632   0.0000000000
C          C       0.94932   0.59945   0.52632   0.0000000000
C          C       0.59945   0.55068   0.77632   0.0000000000
C          C       0.90055   0.94932   0.27632   0.0000000000
C          C       0.94932   0.09945   0.72368   0.0000000000
C          C       0.55068   0.40055   0.22368   0.0000000000
C          C       0.90055   0.44932   0.97368   0.0000000000
C          C       0.59945   0.05068   0.47368   0.0000000000
C          C       0.05068   0.40055   0.52632   0.0000000000
C          C       0.44932   0.09945   0.02632   0.0000000000
C          C       0.09945   0.05068   0.27632   0.0000000000
C          C       0.40055   0.44932   0.77632   0.0000000000
C          C       0.45313   0.56775   0.35240   0.0000000000
C          C       0.04687   0.93225   0.85240   0.0000000000
C          C       0.43225   0.95313   0.60240   0.0000000000
C          C       0.06775   0.54687   0.10240   0.0000000000
C          C       0.54687   0.93225   0.89760   0.0000000000
C          C       0.95313   0.56775   0.39760   0.0000000000
C          C       0.56775   0.54687   0.64760   0.0000000000
C          C       0.93225   0.95313   0.14760   0.0000000000
C          C       0.95313   0.06775   0.85240   0.0000000000
C          C       0.54687   0.43225   0.35240   0.0000000000
C          C       0.93225   0.45313   0.10240   0.0000000000
C          C       0.56775   0.04687   0.60240   0.0000000000
C          C       0.04687   0.43225   0.39760   0.0000000000
C          C       0.45313   0.06775   0.89760   0.0000000000
C          C       0.06775   0.04687   0.14760   0.0000000000
C          C       0.43225   0.45313   0.64760   0.0000000000
C          C       0.49817   0.54459   0.38907   0.0000000000
C          C       0.00183   0.95541   0.88907   0.0000000000
C          C       0.45541   0.99817   0.63907   0.0000000000
C          C       0.04459   0.50183   0.13907   0.0000000000
C          C       0.50183   0.95541   0.86093   0.0000000000
C          C       0.99817   0.54459   0.36093   0.0000000000
C          C       0.54459   0.50183   0.61093   0.0000000000
C          C       0.95541   0.99817   0.11093   0.0000000000
C          C       0.99817   0.04459   0.88907   0.0000000000
C          C       0.50183   0.45541   0.38907   0.0000000000
C          C       0.95541   0.49817   0.13907   0.0000000000
C          C       0.54459   0.00183   0.63907   0.0000000000
C          C       0.00183   0.45541   0.36093   0.0000000000
C          C       0.49817   0.04459   0.86093   0.0000000000
C          C       0.04459   0.00183   0.11093   0.0000000000
C          C       0.45541   0.49817   0.61093   0.0000000000
C          C       0.53956   0.55509   0.29500   0.0000000000
C          C       0.96044   0.94491   0.79500   0.0000000000
C          C       0.44491   0.03956   0.54500   0.0000000000
C          C       0.05509   0.46044   0.04500   0.0000000000
C          C       0.46044   0.94491   0.95500   0.0000000000
C          C       0.03956   0.55509   0.45500   0.0000000000
C          C       0.55509   0.46044   0.70500   0.0000000000
C          C       0.94491   0.03956   0.20500   0.0000000000
C          C       0.03956   0.05509   0.79500   0.0000000000
C          C       0.46044   0.44491   0.29500   0.0000000000
C          C       0.94491   0.53956   0.04500   0.0000000000
C          C       0.55509   0.96044   0.54500   0.0000000000
C          C       0.96044   0.44491   0.45500   0.0000000000
C          C       0.53956   0.05509   0.95500   0.0000000000
C          C       0.05509   0.96044   0.20500   0.0000000000
C          C       0.44491   0.53956   0.70500   0.0000000000
C          C       0.53576   0.58669   0.16646   0.0000000000
C          C       0.96424   0.91331   0.66646   0.0000000000
C          C       0.41331   0.03576   0.41646   0.0000000000
C          C       0.08669   0.46424   0.91646   0.0000000000
C          C       0.46424   0.91331   0.08354   0.0000000000
C          C       0.03576   0.58669   0.58354   0.0000000000
C          C       0.58669   0.46424   0.83354   0.0000000000
C          C       0.91331   0.03576   0.33354   0.0000000000
C          C       0.03576   0.08669   0.66646   0.0000000000
C          C       0.46424   0.41331   0.16646   0.0000000000
C          C       0.91331   0.53576   0.91646   0.0000000000
C          C       0.58669   0.96424   0.41646   0.0000000000
C          C       0.96424   0.41331   0.58354   0.0000000000
C          C       0.53576   0.08669   0.08354   0.0000000000
C          C       0.08669   0.96424   0.33354   0.0000000000
C          C       0.41331   0.53576   0.83354   0.0000000000
H          H       0.58785   0.66240   0.69079   0.0000000000
H          H       0.91215   0.83760   0.19079   0.0000000000
H          H       0.33760   0.08785   0.94079   0.0000000000
H          H       0.16240   0.41215   0.44079   0.0000000000
H          H       0.41215   0.83760   0.55921   0.0000000000
H          H       0.08785   0.66240   0.05921   0.0000000000
H          H       0.66240   0.41215   0.30921   0.0000000000
H          H       0.83760   0.08785   0.80921   0.0000000000
H          H       0.08785   0.16240   0.19079   0.0000000000
H          H       0.41215   0.33760   0.69079   0.0000000000
H          H       0.83760   0.58785   0.44079   0.0000000000
H          H       0.66240   0.91215   0.94079   0.0000000000
H          H       0.91215   0.33760   0.05921   0.0000000000
H          H       0.58785   0.16240   0.55921   0.0000000000
H          H       0.16240   0.91215   0.80921   0.0000000000
H          H       0.33760   0.58785   0.30921   0.0000000000
H          H       0.58089   0.70094   0.41530   0.0000000000
H          H       0.91911   0.79906   0.91530   0.0000000000
H          H       0.29906   0.08089   0.66530   0.0000000000
H          H       0.20094   0.41911   0.16530   0.0000000000
H          H       0.41911   0.79906   0.83470   0.0000000000
H          H       0.08089   0.70094   0.33470   0.0000000000
H          H       0.70094   0.41911   0.58470   0.0000000000
H          H       0.79906   0.08089   0.08470   0.0000000000
H          H       0.08089   0.20094   0.91530   0.0000000000
H          H       0.41911   0.29906   0.41530   0.0000000000
H          H       0.79906   0.58089   0.16530   0.0000000000
H          H       0.70094   0.91911   0.66530   0.0000000000
H          H       0.91911   0.29906   0.33470   0.0000000000
H          H       0.58089   0.20094   0.83470   0.0000000000
H          H       0.20094   0.91911   0.08470   0.0000000000
H          H       0.29906   0.58089   0.58470   0.0000000000
H          H       0.43689   0.70851   0.45897   0.0000000000
H          H       0.06311   0.79149   0.95897   0.0000000000
H          H       0.29149   0.93689   0.70897   0.0000000000
H          H       0.20851   0.56311   0.20897   0.0000000000
H          H       0.56311   0.79149   0.79103   0.0000000000
H          H       0.93689   0.70851   0.29103   0.0000000000
H          H       0.70851   0.56311   0.54103   0.0000000000
H          H       0.79149   0.93689   0.04103   0.0000000000
H          H       0.93689   0.20851   0.95897   0.0000000000
H          H       0.56311   0.29149   0.45897   0.0000000000
H          H       0.79149   0.43689   0.20897   0.0000000000
H          H       0.70851   0.06311   0.70897   0.0000000000
H          H       0.06311   0.29149   0.29103   0.0000000000
H          H       0.43689   0.20851   0.79103   0.0000000000
H          H       0.20851   0.06311   0.04103   0.0000000000
H          H       0.29149   0.43689   0.54103   0.0000000000
H          H       0.44145   0.66783   0.75124   0.0000000000
H          H       0.05855   0.83217   0.25124   0.0000000000
H          H       0.33217   0.94145   0.00124   0.0000000000
H          H       0.16783   0.55855   0.50124   0.0000000000
H          H       0.55855   0.83217   0.49876   0.0000000000
H          H       0.94145   0.66783   0.99876   0.0000000000
H          H       0.66783   0.55855   0.24876   0.0000000000
H          H       0.83217   0.94145   0.74876   0.0000000000
H          H       0.94145   0.16783   0.25124   0.0000000000
H          H       0.55855   0.33217   0.75124   0.0000000000
H          H       0.83217   0.44145   0.50124   0.0000000000
H          H       0.66783   0.05855   0.00124   0.0000000000
H          H       0.05855   0.33217   0.99876   0.0000000000
H          H       0.44145   0.16783   0.49876   0.0000000000
H          H       0.16783   0.05855   0.74876   0.0000000000
H          H       0.33217   0.44145   0.24876   0.0000000000
H          H       0.43106   0.73221   0.29589   0.0000000000
H          H       0.06894   0.76779   0.79589   0.0000000000
H          H       0.26779   0.93106   0.54589   0.0000000000
H          H       0.23221   0.56894   0.04589   0.0000000000
H          H       0.56894   0.76779   0.95411   0.0000000000
H          H       0.93106   0.73221   0.45411   0.0000000000
H          H       0.73221   0.56894   0.70411   0.0000000000
H          H       0.76779   0.93106   0.20411   0.0000000000
H          H       0.93106   0.23221   0.79589   0.0000000000
H          H       0.56894   0.26779   0.29589   0.0000000000
H          H       0.76779   0.43106   0.04589   0.0000000000
H          H       0.73221   0.06894   0.54589   0.0000000000
H          H       0.06894   0.26779   0.45411   0.0000000000
H          H       0.43106   0.23221   0.95411   0.0000000000
H          H       0.23221   0.06894   0.20411   0.0000000000
H          H       0.26779   0.43106   0.70411   0.0000000000
H          H       0.57645   0.72742   0.23246   0.0000000000
H          H       0.92355   0.77258   0.73246   0.0000000000
H          H       0.27258   0.07645   0.48246   0.0000000000
H          H       0.22742   0.42355   0.98246   0.0000000000
H          H       0.42355   0.77258   0.01754   0.0000000000
H          H       0.07645   0.72742   0.51754   0.0000000000
H          H       0.72742   0.42355   0.76754   0.0000000000
H          H       0.77258   0.07645   0.26754   0.0000000000
H          H       0.07645   0.22742   0.73246   0.0000000000
H          H       0.42355   0.27258   0.23246   0.0000000000
H          H       0.77258   0.57645   0.98246   0.0000000000
H          H       0.72742   0.92355   0.48246   0.0000000000
H          H       0.92355   0.27258   0.51754   0.0000000000
H          H       0.57645   0.22742   0.01754   0.0000000000
H          H       0.22742   0.92355   0.26754   0.0000000000
H          H       0.27258   0.57645   0.76754   0.0000000000
H          H       0.45338   0.64832   0.95809   0.0000000000
H          H       0.04662   0.85168   0.45809   0.0000000000
H          H       0.35168   0.95338   0.20809   0.0000000000
H          H       0.14832   0.54662   0.70809   0.0000000000
H          H       0.54662   0.85168   0.29191   0.0000000000
H          H       0.95338   0.64832   0.79191   0.0000000000
H          H       0.64832   0.54662   0.04191   0.0000000000
H          H       0.85168   0.95338   0.54191   0.0000000000
H          H       0.95338   0.14832   0.45809   0.0000000000
H          H       0.54662   0.35168   0.95809   0.0000000000
H          H       0.85168   0.45338   0.70809   0.0000000000
H          H       0.64832   0.04662   0.20809   0.0000000000
H          H       0.04662   0.35168   0.79191   0.0000000000
H          H       0.45338   0.14832   0.29191   0.0000000000
H          H       0.14832   0.04662   0.54191   0.0000000000
H          H       0.35168   0.45338   0.04191   0.0000000000
H          H       0.42206   0.61721   0.18733   0.0000000000
H          H       0.07794   0.88279   0.68733   0.0000000000
H          H       0.38279   0.92206   0.43733   0.0000000000
H          H       0.11721   0.57794   0.93733   0.0000000000
H          H       0.57794   0.88279   0.06267   0.0000000000
H          H       0.92206   0.61721   0.56267   0.0000000000
H          H       0.61721   0.57794   0.81267   0.0000000000
H          H       0.88279   0.92206   0.31267   0.0000000000
H          H       0.92206   0.11721   0.68733   0.0000000000
H          H       0.57794   0.38279   0.18733   0.0000000000
H          H       0.88279   0.42206   0.93733   0.0000000000
H          H       0.61721   0.07794   0.43733   0.0000000000
H          H       0.07794   0.38279   0.56267   0.0000000000
H          H       0.42206   0.11721   0.06267   0.0000000000
H          H       0.11721   0.07794   0.31267   0.0000000000
H          H       0.38279   0.42206   0.81267   0.0000000000
H          H       0.42599   0.55825   0.42938   0.0000000000
H          H       0.07401   0.94175   0.92938   0.0000000000
H          H       0.44175   0.92599   0.67938   0.0000000000
H          H       0.05825   0.57401   0.17938   0.0000000000
H          H       0.57401   0.94175   0.82062   0.0000000000
H          H       0.92599   0.55825   0.32062   0.0000000000
H          H       0.55825   0.57401   0.57062   0.0000000000
H          H       0.94175   0.92599   0.07062   0.0000000000
H          H       0.92599   0.05825   0.92938   0.0000000000
H          H       0.57401   0.44175   0.42938   0.0000000000
H          H       0.94175   0.42599   0.17938   0.0000000000
H          H       0.55825   0.07401   0.67938   0.0000000000
H          H       0.07401   0.44175   0.32062   0.0000000000
H          H       0.42599   0.05825   0.82062   0.0000000000
H          H       0.05825   0.07401   0.07062   0.0000000000
H          H       0.44175   0.42599   0.57062   0.0000000000
H          H       0.56737   0.53831   0.33224   0.0000000000
H          H       0.93263   0.96169   0.83224   0.0000000000
H          H       0.46169   0.06737   0.58224   0.0000000000
H          H       0.03831   0.43263   0.08224   0.0000000000
H          H       0.43263   0.96169   0.91776   0.0000000000
H          H       0.06737   0.53831   0.41776   0.0000000000
H          H       0.53831   0.43263   0.66776   0.0000000000
H          H       0.96169   0.06737   0.16776   0.0000000000
H          H       0.06737   0.03831   0.83224   0.0000000000
H          H       0.43263   0.46169   0.33224   0.0000000000
H          H       0.96169   0.56737   0.08224   0.0000000000
H          H       0.53831   0.93263   0.58224   0.0000000000
H          H       0.93263   0.46169   0.41776   0.0000000000
H          H       0.56737   0.03831   0.91776   0.0000000000
H          H       0.03831   0.93263   0.16776   0.0000000000
H          H       0.46169   0.56737   0.66776   0.0000000000
H          H       0.56272   0.59727   0.09096   0.0000000000
H          H       0.93728   0.90273   0.59096   0.0000000000
H          H       0.40273   0.06272   0.34096   0.0000000000
H          H       0.09727   0.43728   0.84096   0.0000000000
H          H       0.43728   0.90273   0.15904   0.0000000000
H          H       0.06272   0.59727   0.65904   0.0000000000
H          H       0.59727   0.43728   0.90904   0.0000000000
H          H       0.90273   0.06272   0.40904   0.0000000000
H          H       0.06272   0.09727   0.59096   0.0000000000
H          H       0.43728   0.40273   0.09096   0.0000000000
H          H       0.90273   0.56272   0.84096   0.0000000000
H          H       0.59727   0.93728   0.34096   0.0000000000
H          H       0.93728   0.40273   0.65904   0.0000000000
H          H       0.56272   0.09727   0.15904   0.0000000000
H          H       0.09727   0.93728   0.40904   0.0000000000
H          H       0.40273   0.56272   0.90904   0.0000000000
C          C       0.50000   0.50000   0.50000   0.0000000000
C          C       0.00000   0.00000   0.00000   0.0000000000
C          C       0.50000   0.00000   0.75000   0.0000000000
C          C       0.00000   0.50000   0.25000   0.0000000000
