data_crystal

_cell_length_a    26.22600
_cell_length_b    26.22600
_cell_length_c    7.57400
_cell_angle_alpha 90.00000
_cell_angle_beta  90.00000
_cell_angle_gamma 90.00000

_space_group_name_Hall 'P 1'
_space_group_name_H-M_alt  'P 1'

loop_
_symmetry_equiv_pos_as_xyz
'x,y,z' 

loop_
_atom_site_label
_atom_site_type_symbol
_atom_site_fract_x
_atom_site_fract_y
_atom_site_fract_z
C          C       0.45336   0.24465   0.99860 
C          C       0.54664   0.75535   0.00140 
C          C       0.04664   0.75535   0.49860 
C          C       0.95336   0.24465   0.50140 
C          C       0.50535   0.70336   0.24860 
C          C       0.49465   0.29664   0.75140 
C          C       0.99465   0.29664   0.74860 
C          C       0.00535   0.70336   0.25140 
C          C       0.95336   0.74465   0.49860 
C          C       0.04664   0.25535   0.50140 
C          C       0.54664   0.25535   0.99860 
C          C       0.45336   0.74465   0.00140 
C          C       0.00535   0.20336   0.74860 
C          C       0.99465   0.79664   0.25140 
C          C       0.49465   0.79664   0.24860 
C          C       0.50535   0.20336   0.75140 
C          C       0.50000   0.25000   0.87500 
C          C       0.50000   0.75000   0.12500 
C          C       0.00000   0.75000   0.37500 
C          C       0.00000   0.25000   0.62500 
N          N       0.32911   0.23528   0.35100 
N          N       0.67089   0.76472   0.64900 
N          N       0.17089   0.76472   0.85100 
N          N       0.82911   0.23528   0.14900 
N          N       0.51472   0.57911   0.60100 
N          N       0.48528   0.42089   0.39900 
N          N       0.98528   0.42089   0.10100 
N          N       0.01472   0.57911   0.89900 
N          N       0.82911   0.73528   0.85100 
N          N       0.17089   0.26472   0.14900 
N          N       0.67089   0.26472   0.35100 
N          N       0.32911   0.73528   0.64900 
N          N       0.01472   0.07911   0.10100 
N          N       0.98528   0.92089   0.89900 
N          N       0.48528   0.92089   0.60100 
N          N       0.51472   0.07911   0.39900 
C          C       0.41940   0.20496   0.99540 
C          C       0.58060   0.79504   0.00460 
C          C       0.08060   0.79504   0.49540 
C          C       0.91940   0.20496   0.50460 
C          C       0.54504   0.66940   0.24540 
C          C       0.45496   0.33060   0.75460 
C          C       0.95496   0.33060   0.74540 
C          C       0.04504   0.66940   0.25460 
C          C       0.91940   0.70496   0.49540 
C          C       0.08060   0.29504   0.50460 
C          C       0.58060   0.29504   0.99540 
C          C       0.41940   0.70496   0.00460 
C          C       0.04504   0.16940   0.74540 
C          C       0.95496   0.83060   0.25460 
C          C       0.45496   0.83060   0.24540 
C          C       0.54504   0.16940   0.75460 
H          H       0.42350   0.17920   0.91230 
H          H       0.57650   0.82080   0.08770 
H          H       0.07650   0.82080   0.41230 
H          H       0.92350   0.17920   0.58770 
H          H       0.57080   0.67350   0.16230 
H          H       0.42920   0.32650   0.83770 
H          H       0.92920   0.32650   0.66230 
H          H       0.07080   0.67350   0.33770 
H          H       0.92350   0.67920   0.41230 
H          H       0.07650   0.32080   0.58770 
H          H       0.57650   0.32080   0.91230 
H          H       0.42350   0.67920   0.08770 
H          H       0.07080   0.17350   0.66230 
H          H       0.92920   0.82650   0.33770 
H          H       0.42920   0.82650   0.16230 
H          H       0.57080   0.17350   0.83770 
C          C       0.37901   0.20239   0.11300 
C          C       0.62099   0.79761   0.88700 
C          C       0.12099   0.79761   0.61300 
C          C       0.87901   0.20239   0.38700 
C          C       0.54761   0.62901   0.36300 
C          C       0.45239   0.37099   0.63700 
C          C       0.95239   0.37099   0.86300 
C          C       0.04761   0.62901   0.13700 
C          C       0.87901   0.70239   0.61300 
C          C       0.12099   0.29761   0.38700 
C          C       0.62099   0.29761   0.11300 
C          C       0.37901   0.70239   0.88700 
C          C       0.04761   0.12901   0.86300 
C          C       0.95239   0.87099   0.13700 
C          C       0.45239   0.87099   0.36300 
C          C       0.54761   0.12901   0.63700 
H          H       0.35600   0.17540   0.10620 
H          H       0.64400   0.82460   0.89380 
H          H       0.14400   0.82460   0.60620 
H          H       0.85600   0.17540   0.39380 
H          H       0.57460   0.60600   0.35620 
H          H       0.42540   0.39400   0.64380 
H          H       0.92540   0.39400   0.85620 
H          H       0.07460   0.60600   0.14380 
H          H       0.85600   0.67540   0.60620 
H          H       0.14400   0.32460   0.39380 
H          H       0.64400   0.32460   0.10620 
H          H       0.35600   0.67540   0.89380 
H          H       0.07460   0.10600   0.85620 
H          H       0.92540   0.89400   0.14380 
H          H       0.42540   0.89400   0.35620 
H          H       0.57460   0.10600   0.64380 
C          C       0.37271   0.23917   0.23880 
C          C       0.62729   0.76083   0.76120 
C          C       0.12729   0.76083   0.73880 
C          C       0.87271   0.23917   0.26120 
C          C       0.51083   0.62271   0.48880 
C          C       0.48917   0.37729   0.51120 
C          C       0.98917   0.37729   0.98880 
C          C       0.01083   0.62271   0.01120 
C          C       0.87271   0.73917   0.73880 
C          C       0.12729   0.26083   0.26120 
C          C       0.62729   0.26083   0.23880 
C          C       0.37271   0.73917   0.76120 
C          C       0.01083   0.12271   0.98880 
C          C       0.98917   0.87729   0.01120 
C          C       0.48917   0.87729   0.48880 
C          C       0.51083   0.12271   0.51120 
C          C       0.44659   0.28160   0.12840 
C          C       0.55341   0.71840   0.87160 
C          C       0.05341   0.71840   0.62840 
C          C       0.94659   0.28160   0.37160 
C          C       0.46840   0.69659   0.37840 
C          C       0.53160   0.30341   0.62160 
C          C       0.03160   0.30341   0.87840 
C          C       0.96840   0.69659   0.12160 
C          C       0.94659   0.78160   0.62840 
C          C       0.05341   0.21840   0.37160 
C          C       0.55341   0.21840   0.12840 
C          C       0.44659   0.78160   0.87160 
C          C       0.96840   0.19659   0.87840 
C          C       0.03160   0.80341   0.12160 
C          C       0.53160   0.80341   0.37840 
C          C       0.46840   0.19659   0.62160 
H          H       0.46980   0.30840   0.13550 
H          H       0.53020   0.69160   0.86450 
H          H       0.03020   0.69160   0.63550 
H          H       0.96980   0.30840   0.36450 
H          H       0.44160   0.71980   0.38550 
H          H       0.55840   0.28020   0.61450 
H          H       0.05840   0.28020   0.88550 
H          H       0.94160   0.71980   0.11450 
H          H       0.96980   0.80840   0.63550 
H          H       0.03020   0.19160   0.36450 
H          H       0.53020   0.19160   0.13550 
H          H       0.46980   0.80840   0.86450 
H          H       0.94160   0.21980   0.88550 
H          H       0.05840   0.78020   0.11450 
H          H       0.55840   0.78020   0.38550 
H          H       0.44160   0.21980   0.61450 
C          C       0.40700   0.27990   0.24600 
C          C       0.59300   0.72010   0.75400 
C          C       0.09300   0.72010   0.74600 
C          C       0.90700   0.27990   0.25400 
C          C       0.47010   0.65700   0.49600 
C          C       0.52990   0.34300   0.50400 
C          C       0.02990   0.34300   0.99600 
C          C       0.97010   0.65700   0.00400 
C          C       0.90700   0.77990   0.74600 
C          C       0.09300   0.22010   0.25400 
C          C       0.59300   0.22010   0.24600 
C          C       0.40700   0.77990   0.75400 
C          C       0.97010   0.15700   0.99600 
C          C       0.02990   0.84300   0.00400 
C          C       0.52990   0.84300   0.49600 
C          C       0.47010   0.15700   0.50400 
H          H       0.40300   0.30550   0.32960 
H          H       0.59700   0.69450   0.67040 
H          H       0.09700   0.69450   0.82960 
H          H       0.90300   0.30550   0.17040 
H          H       0.44450   0.65300   0.57960 
H          H       0.55550   0.34700   0.42040 
H          H       0.05550   0.34700   0.07960 
H          H       0.94450   0.65300   0.92040 
H          H       0.90300   0.80550   0.82960 
H          H       0.09700   0.19450   0.17040 
H          H       0.59700   0.19450   0.32960 
H          H       0.40300   0.80550   0.67040 
H          H       0.94450   0.15300   0.07960 
H          H       0.05550   0.84700   0.92040 
H          H       0.55550   0.84700   0.57960 
H          H       0.44450   0.15300   0.42040 
C          C       0.29011   0.25133   0.63310 
C          C       0.70989   0.74867   0.36690 
C          C       0.20989   0.74867   0.13310 
C          C       0.79011   0.25133   0.86690 
C          C       0.49867   0.54011   0.88310 
C          C       0.50133   0.45989   0.11690 
C          C       0.00133   0.45989   0.38310 
C          C       0.99867   0.54011   0.61690 
C          C       0.79011   0.75133   0.13310 
C          C       0.20989   0.24867   0.86690 
C          C       0.70989   0.24867   0.63310 
C          C       0.29011   0.75133   0.36690 
C          C       0.99867   0.04011   0.38310 
C          C       0.00133   0.95989   0.61690 
C          C       0.50133   0.95989   0.88310 
C          C       0.49867   0.04011   0.11690 
C          C       0.33309   0.25192   0.50500 
C          C       0.66691   0.74808   0.49500 
C          C       0.16691   0.74808   0.00500 
C          C       0.83309   0.25192   0.99500 
C          C       0.49808   0.58309   0.75500 
C          C       0.50192   0.41691   0.24500 
C          C       0.00192   0.41691   0.25500 
C          C       0.99808   0.58309   0.74500 
C          C       0.83309   0.75192   0.00500 
C          C       0.16691   0.24808   0.99500 
C          C       0.66691   0.24808   0.50500 
C          C       0.33309   0.75192   0.49500 
C          C       0.99808   0.08309   0.25500 
C          C       0.00192   0.91691   0.74500 
C          C       0.50192   0.91691   0.75500 
C          C       0.49808   0.08309   0.24500 
H          H       0.36430   0.26530   0.54100 
H          H       0.63570   0.73470   0.45900 
H          H       0.13570   0.73470   0.04100 
H          H       0.86430   0.26530   0.95900 
H          H       0.48470   0.61430   0.79100 
H          H       0.51530   0.38570   0.20900 
H          H       0.01530   0.38570   0.29100 
H          H       0.98470   0.61430   0.70900 
H          H       0.86430   0.76530   0.04100 
H          H       0.13570   0.23470   0.95900 
H          H       0.63570   0.23470   0.54100 
H          H       0.36430   0.76530   0.45900 
H          H       0.98470   0.11430   0.29100 
H          H       0.01530   0.88570   0.70900 
H          H       0.51530   0.88570   0.79100 
H          H       0.48470   0.11430   0.20900 
C          C       0.29867   0.26501   0.80440 
C          C       0.70133   0.73499   0.19560 
C          C       0.20133   0.73499   0.30440 
C          C       0.79867   0.26501   0.69560 
C          C       0.48499   0.54867   0.05440 
C          C       0.51501   0.45133   0.94560 
C          C       0.01501   0.45133   0.55440 
C          C       0.98499   0.54867   0.44560 
C          C       0.79867   0.76501   0.30440 
C          C       0.20133   0.23499   0.69560 
C          C       0.70133   0.23499   0.80440 
C          C       0.29867   0.76501   0.19560 
C          C       0.98499   0.04867   0.55440 
C          C       0.01501   0.95133   0.44560 
C          C       0.51501   0.95133   0.05440 
C          C       0.48499   0.04867   0.94560 
H          H       0.33090   0.27550   0.84020 
H          H       0.66910   0.72450   0.15980 
H          H       0.16910   0.72450   0.34020 
H          H       0.83090   0.27550   0.65980 
H          H       0.47450   0.58090   0.09020 
H          H       0.52550   0.41910   0.90980 
H          H       0.02550   0.41910   0.59020 
H          H       0.97450   0.58090   0.40980 
H          H       0.83090   0.77550   0.34020 
H          H       0.16910   0.22450   0.65980 
H          H       0.66910   0.22450   0.84020 
H          H       0.33090   0.77550   0.15980 
H          H       0.97450   0.08090   0.59020 
H          H       0.02550   0.91910   0.40980 
H          H       0.52550   0.91910   0.09020 
H          H       0.47450   0.08090   0.90980 
C          C       0.24129   0.23692   0.57500 
C          C       0.75871   0.76308   0.42500 
C          C       0.25871   0.76308   0.07500 
C          C       0.74129   0.23692   0.92500 
C          C       0.51308   0.49129   0.82500 
C          C       0.48692   0.50871   0.17500 
C          C       0.98692   0.50871   0.32500 
C          C       0.01308   0.49129   0.67500 
C          C       0.74129   0.73692   0.07500 
C          C       0.25871   0.26308   0.92500 
C          C       0.75871   0.26308   0.57500 
C          C       0.24129   0.73692   0.42500 
C          C       0.01308   0.99129   0.32500 
C          C       0.98692   0.00871   0.67500 
C          C       0.48692   0.00871   0.82500 
C          C       0.51308   0.99129   0.17500 
H          H       0.23580   0.22880   0.45700 
H          H       0.76420   0.77120   0.54300 
H          H       0.26420   0.77120   0.95700 
H          H       0.73580   0.22880   0.04300 
H          H       0.52120   0.48580   0.70700 
H          H       0.47880   0.51420   0.29300 
H          H       0.97880   0.51420   0.20700 
H          H       0.02120   0.48580   0.79300 
H          H       0.73580   0.72880   0.95700 
H          H       0.26420   0.27120   0.04300 
H          H       0.76420   0.27120   0.45700 
H          H       0.23580   0.72880   0.54300 
H          H       0.02120   0.98580   0.20700 
H          H       0.97880   0.01420   0.79300 
H          H       0.47880   0.01420   0.70700 
H          H       0.52120   0.98580   0.29300 
