data_crystal
 
_cell_length_a    19.63940
_cell_length_b    19.63940
_cell_length_c    8.90620
_cell_angle_alpha 90.00000
_cell_angle_beta  90.00000
_cell_angle_gamma 90.00000
 
_symmetry_space_group_name_Hall 'P 1'
_symmetry_space_group_name_H-M  'P 1'
 
loop_
_symmetry_equiv_pos_as_xyz
 'x,y,z' 
 
loop_
_atom_site_label
_atom_site_type_symbol
_atom_site_fract_x
_atom_site_fract_y
_atom_site_fract_z
_atom_site_charge
C          C       0.50000   0.25000   0.37500   0.0000000000
C          C       0.50000   0.75000   0.62500   0.0000000000
C          C      -0.00000   0.75000   0.87500   0.0000000000
C          C      -0.00000   0.25000   0.12500   0.0000000000
C          C       0.50830   0.31030   0.26540   0.0000000000
C          C       0.49170   0.68970   0.73460   0.0000000000
C          C       0.99170   0.68970   0.76540   0.0000000000
C          C       0.00830   0.31030   0.23460   0.0000000000
C          C       0.43970   0.75830   0.51540   0.0000000000
C          C       0.56030   0.24170   0.48460   0.0000000000
C          C       0.06030   0.24170   0.01540   0.0000000000
C          C       0.93970   0.75830   0.98460   0.0000000000
C          C       0.00830   0.81030   0.76540   0.0000000000
C          C       0.99170   0.18970   0.23460   0.0000000000
C          C       0.49170   0.18970   0.26540   0.0000000000
C          C       0.50830   0.81030   0.73460   0.0000000000
C          C       0.93970   0.25830   0.01540   0.0000000000
C          C       0.06030   0.74170   0.98460   0.0000000000
C          C       0.56030   0.74170   0.51540   0.0000000000
C          C       0.43970   0.25830   0.48460   0.0000000000
C          C       0.52580   0.39530   0.01580   0.0000000000
C          C       0.47420   0.60470   0.98420   0.0000000000
C          C       0.97420   0.60470   0.51580   0.0000000000
C          C       0.02580   0.39530   0.48420   0.0000000000
C          C       0.35470   0.77580   0.26580   0.0000000000
C          C       0.64530   0.22420   0.73420   0.0000000000
C          C       0.14530   0.22420   0.76580   0.0000000000
C          C       0.85470   0.77580   0.23420   0.0000000000
C          C       0.02580   0.89530   0.51580   0.0000000000
C          C       0.97420   0.10470   0.48420   0.0000000000
C          C       0.47420   0.10470   0.01580   0.0000000000
C          C       0.52580   0.89530   0.98420   0.0000000000
C          C       0.85470   0.27580   0.76580   0.0000000000
C          C       0.14530   0.72420   0.23420   0.0000000000
C          C       0.64530   0.72420   0.26580   0.0000000000
C          C       0.35470   0.27580   0.73420   0.0000000000
C          C       0.57890   0.38290   0.11230   0.0000000000
C          C       0.42110   0.61710   0.88770   0.0000000000
C          C       0.92110   0.61710   0.61230   0.0000000000
C          C       0.07890   0.38290   0.38770   0.0000000000
C          C       0.36710   0.82890   0.36230   0.0000000000
C          C       0.63290   0.17110   0.63770   0.0000000000
C          C       0.13290   0.17110   0.86230   0.0000000000
C          C       0.86710   0.82890   0.13770   0.0000000000
C          C       0.07890   0.88290   0.61230   0.0000000000
C          C       0.92110   0.11710   0.38770   0.0000000000
C          C       0.42110   0.11710   0.11230   0.0000000000
C          C       0.57890   0.88290   0.88770   0.0000000000
C          C       0.86710   0.32890   0.86230   0.0000000000
C          C       0.13290   0.67110   0.13770   0.0000000000
C          C       0.63290   0.67110   0.36230   0.0000000000
C          C       0.36710   0.32890   0.63770   0.0000000000
H          H       0.62190   0.40350   0.09410   0.0000000000
H          H       0.37810   0.59650   0.90590   0.0000000000
H          H       0.87810   0.59650   0.59410   0.0000000000
H          H       0.12190   0.40350   0.40590   0.0000000000
H          H       0.34650   0.87190   0.34410   0.0000000000
H          H       0.65350   0.12810   0.65590   0.0000000000
H          H       0.15350   0.12810   0.84410   0.0000000000
H          H       0.84650   0.87190   0.15590   0.0000000000
H          H       0.12190   0.90350   0.59410   0.0000000000
H          H       0.87810   0.09650   0.40590   0.0000000000
H          H       0.37810   0.09650   0.09410   0.0000000000
H          H       0.62190   0.90350   0.90590   0.0000000000
H          H       0.84650   0.37190   0.84410   0.0000000000
H          H       0.15350   0.62810   0.15590   0.0000000000
H          H       0.65350   0.62810   0.34410   0.0000000000
H          H       0.34650   0.37190   0.65590   0.0000000000
C          C       0.57090   0.34070   0.23620   0.0000000000
C          C       0.42910   0.65930   0.76380   0.0000000000
C          C       0.92910   0.65930   0.73620   0.0000000000
C          C       0.07090   0.34070   0.26380   0.0000000000
C          C       0.40930   0.82090   0.48620   0.0000000000
C          C       0.59070   0.17910   0.51380   0.0000000000
C          C       0.09070   0.17910   0.98620   0.0000000000
C          C       0.90930   0.82090   0.01380   0.0000000000
C          C       0.07090   0.84070   0.73620   0.0000000000
C          C       0.92910   0.15930   0.26380   0.0000000000
C          C       0.42910   0.15930   0.23620   0.0000000000
C          C       0.57090   0.84070   0.76380   0.0000000000
C          C       0.90930   0.32090   0.98620   0.0000000000
C          C       0.09070   0.67910   0.01380   0.0000000000
C          C       0.59070   0.67910   0.48620   0.0000000000
C          C       0.40930   0.32090   0.51380   0.0000000000
H          H       0.60830   0.33250   0.30130   0.0000000000
H          H       0.39170   0.66750   0.69870   0.0000000000
H          H       0.89170   0.66750   0.80130   0.0000000000
H          H       0.10830   0.33250   0.19870   0.0000000000
H          H       0.41750   0.85830   0.55130   0.0000000000
H          H       0.58250   0.14170   0.44870   0.0000000000
H          H       0.08250   0.14170   0.05130   0.0000000000
H          H       0.91750   0.85830   0.94870   0.0000000000
H          H       0.10830   0.83250   0.80130   0.0000000000
H          H       0.89170   0.16750   0.19870   0.0000000000
H          H       0.39170   0.16750   0.30130   0.0000000000
H          H       0.60830   0.83250   0.69870   0.0000000000
H          H       0.91750   0.35830   0.05130   0.0000000000
H          H       0.08250   0.64170   0.94870   0.0000000000
H          H       0.58250   0.64170   0.55130   0.0000000000
H          H       0.41750   0.35830   0.44870   0.0000000000
C          C       0.46220   0.36740   0.04790   0.0000000000
C          C       0.53780   0.63260   0.95210   0.0000000000
C          C       0.03780   0.63260   0.54790   0.0000000000
C          C       0.96220   0.36740   0.45210   0.0000000000
C          C       0.38260   0.71220   0.29790   0.0000000000
C          C       0.61740   0.28780   0.70210   0.0000000000
C          C       0.11740   0.28780   0.79790   0.0000000000
C          C       0.88260   0.71220   0.20210   0.0000000000
C          C       0.96220   0.86740   0.54790   0.0000000000
C          C       0.03780   0.13260   0.45210   0.0000000000
C          C       0.53780   0.13260   0.04790   0.0000000000
C          C       0.46220   0.86740   0.95210   0.0000000000
C          C       0.88260   0.21220   0.79790   0.0000000000
C          C       0.11740   0.78780   0.20210   0.0000000000
C          C       0.61740   0.78780   0.29790   0.0000000000
C          C       0.38260   0.21220   0.70210   0.0000000000
H          H       0.42440   0.37730   0.98500   0.0000000000
H          H       0.57560   0.62270   0.01500   0.0000000000
H          H       0.07560   0.62270   0.48500   0.0000000000
H          H       0.92440   0.37730   0.51500   0.0000000000
H          H       0.37270   0.67440   0.23500   0.0000000000
H          H       0.62730   0.32560   0.76500   0.0000000000
H          H       0.12730   0.32560   0.73500   0.0000000000
H          H       0.87270   0.67440   0.26500   0.0000000000
H          H       0.92440   0.87730   0.48500   0.0000000000
H          H       0.07560   0.12270   0.51500   0.0000000000
H          H       0.57560   0.12270   0.98500   0.0000000000
H          H       0.42440   0.87730   0.01500   0.0000000000
H          H       0.87270   0.17440   0.73500   0.0000000000
H          H       0.12730   0.82560   0.26500   0.0000000000
H          H       0.62730   0.82560   0.23500   0.0000000000
H          H       0.37270   0.17440   0.76500   0.0000000000
C          C       0.45400   0.32560   0.17070   0.0000000000
C          C       0.54600   0.67440   0.82930   0.0000000000
C          C       0.04600   0.67440   0.67070   0.0000000000
C          C       0.95400   0.32560   0.32930   0.0000000000
C          C       0.42440   0.70400   0.42070   0.0000000000
C          C       0.57560   0.29600   0.57930   0.0000000000
C          C       0.07560   0.29600   0.92070   0.0000000000
C          C       0.92440   0.70400   0.07930   0.0000000000
C          C       0.95400   0.82560   0.67070   0.0000000000
C          C       0.04600   0.17440   0.32930   0.0000000000
C          C       0.54600   0.17440   0.17070   0.0000000000
C          C       0.45400   0.82560   0.82930   0.0000000000
C          C       0.92440   0.20400   0.92070   0.0000000000
C          C       0.07560   0.79600   0.07930   0.0000000000
C          C       0.57560   0.79600   0.42070   0.0000000000
C          C       0.42440   0.20400   0.57930   0.0000000000
H          H       0.41040   0.30680   0.19110   0.0000000000
H          H       0.58960   0.69320   0.80890   0.0000000000
H          H       0.08960   0.69320   0.69110   0.0000000000
H          H       0.91040   0.30680   0.30890   0.0000000000
H          H       0.44320   0.66040   0.44110   0.0000000000
H          H       0.55680   0.33960   0.55890   0.0000000000
H          H       0.05680   0.33960   0.94110   0.0000000000
H          H       0.94320   0.66040   0.05890   0.0000000000
H          H       0.91040   0.80680   0.69110   0.0000000000
H          H       0.08960   0.19320   0.30890   0.0000000000
H          H       0.58960   0.19320   0.19110   0.0000000000
H          H       0.41040   0.80680   0.80890   0.0000000000
H          H       0.94320   0.16040   0.94110   0.0000000000
H          H       0.05680   0.83960   0.05890   0.0000000000
H          H       0.55680   0.83960   0.44110   0.0000000000
H          H       0.44320   0.16040   0.55890   0.0000000000
C          C       0.43820   0.49990   0.57530   0.0000000000
C          C       0.56180   0.50010   0.42470   0.0000000000
C          C       0.06180   0.50010   0.07530   0.0000000000
C          C       0.93820   0.49990   0.92470   0.0000000000
C          C       0.25010   0.68820   0.82530   0.0000000000
C          C       0.74990   0.31180   0.17470   0.0000000000
C          C       0.24990   0.31180   0.32530   0.0000000000
C          C       0.75010   0.68820   0.67470   0.0000000000
C          C       0.06180   0.00010   0.92470   0.0000000000
C          C       0.56180   0.00010   0.57530   0.0000000000
C          C       0.75010   0.18820   0.32530   0.0000000000
C          C       0.24990   0.81180   0.67470   0.0000000000
C          C       0.74990   0.81180   0.82530   0.0000000000
C          C       0.25010   0.18820   0.17470   0.0000000000
H          H       0.39600   0.49960   0.62720   0.0000000000
H          H       0.60400   0.50040   0.37280   0.0000000000
H          H       0.10400   0.50040   0.12720   0.0000000000
H          H       0.89600   0.49960   0.87280   0.0000000000
H          H       0.25040   0.64600   0.87720   0.0000000000
H          H       0.74960   0.35400   0.12280   0.0000000000
H          H       0.24960   0.35400   0.37720   0.0000000000
H          H       0.75040   0.64600   0.62280   0.0000000000
H          H       0.10400   0.00040   0.87280   0.0000000000
H          H       0.60400   0.00040   0.62720   0.0000000000
H          H       0.75040   0.14600   0.37720   0.0000000000
H          H       0.24960   0.85400   0.62280   0.0000000000
H          H       0.74960   0.85400   0.87720   0.0000000000
H          H       0.25040   0.14600   0.12280   0.0000000000
C          C       0.49740   0.48090   0.64970   0.0000000000
C          C       0.50260   0.51910   0.35030   0.0000000000
C          C       0.00260   0.51910   0.14970   0.0000000000
C          C       0.99740   0.48090   0.85030   0.0000000000
C          C       0.26910   0.74740   0.89970   0.0000000000
C          C       0.73090   0.25260   0.10030   0.0000000000
C          C       0.23090   0.25260   0.39970   0.0000000000
C          C       0.76910   0.74740   0.60030   0.0000000000
C          C       0.99740   0.98090   0.14970   0.0000000000
C          C       0.00260   0.01910   0.85030   0.0000000000
C          C       0.50260   0.01910   0.64970   0.0000000000
C          C       0.49740   0.98090   0.35030   0.0000000000
C          C       0.76910   0.24740   0.39970   0.0000000000
C          C       0.23090   0.75260   0.60030   0.0000000000
C          C       0.73090   0.75260   0.89970   0.0000000000
C          C       0.26910   0.24740   0.10030   0.0000000000
C          C       0.55950   0.48040   0.57520   0.0000000000
C          C       0.44050   0.51960   0.42480   0.0000000000
C          C       0.94050   0.51960   0.07520   0.0000000000
C          C       0.05950   0.48040   0.92480   0.0000000000
C          C       0.26960   0.80950   0.82520   0.0000000000
C          C       0.73040   0.19050   0.17480   0.0000000000
C          C       0.23040   0.19050   0.32520   0.0000000000
C          C       0.76960   0.80950   0.67480   0.0000000000
C          C       0.05950   0.98040   0.07520   0.0000000000
C          C       0.94050   0.01960   0.92480   0.0000000000
C          C       0.44050   0.01960   0.57520   0.0000000000
C          C       0.55950   0.98040   0.42480   0.0000000000
C          C       0.76960   0.30950   0.32520   0.0000000000
C          C       0.23040   0.69050   0.67480   0.0000000000
C          C       0.73040   0.69050   0.82520   0.0000000000
C          C       0.26960   0.30950   0.17480   0.0000000000
H          H       0.59980   0.46700   0.62590   0.0000000000
H          H       0.40020   0.53300   0.37410   0.0000000000
H          H       0.90020   0.53300   0.12590   0.0000000000
H          H       0.09980   0.46700   0.87410   0.0000000000
H          H       0.28300   0.84980   0.87590   0.0000000000
H          H       0.71700   0.15020   0.12410   0.0000000000
H          H       0.21700   0.15020   0.37590   0.0000000000
H          H       0.78300   0.84980   0.62410   0.0000000000
H          H       0.09980   0.96700   0.12590   0.0000000000
H          H       0.90020   0.03300   0.87410   0.0000000000
H          H       0.40020   0.03300   0.62590   0.0000000000
H          H       0.59980   0.96700   0.37410   0.0000000000
H          H       0.78300   0.34980   0.37590   0.0000000000
H          H       0.21700   0.65020   0.62410   0.0000000000
H          H       0.71700   0.65020   0.87590   0.0000000000
H          H       0.28300   0.34980   0.12410   0.0000000000
C          C       0.49000   0.45460   0.80530   0.0000000000
C          C       0.51000   0.54540   0.19470   0.0000000000
C          C       0.01000   0.54540   0.30530   0.0000000000
C          C       0.99000   0.45460   0.69470   0.0000000000
C          C       0.29540   0.74000   0.05530   0.0000000000
C          C       0.70460   0.26000   0.94470   0.0000000000
C          C       0.20460   0.26000   0.55530   0.0000000000
C          C       0.79540   0.74000   0.44470   0.0000000000
C          C       0.99000   0.95460   0.30530   0.0000000000
C          C       0.01000   0.04540   0.69470   0.0000000000
C          C       0.51000   0.04540   0.80530   0.0000000000
C          C       0.49000   0.95460   0.19470   0.0000000000
C          C       0.79540   0.24000   0.55530   0.0000000000
C          C       0.20460   0.76000   0.44470   0.0000000000
C          C       0.70460   0.76000   0.05530   0.0000000000
C          C       0.29540   0.24000   0.94470   0.0000000000
H          H       0.44630   0.45540   0.85080   0.0000000000
H          H       0.55370   0.54460   0.14920   0.0000000000
H          H       0.05370   0.54460   0.35080   0.0000000000
H          H       0.94630   0.45540   0.64920   0.0000000000
H          H       0.29460   0.69630   0.10080   0.0000000000
H          H       0.70540   0.30370   0.89920   0.0000000000
H          H       0.20540   0.30370   0.60080   0.0000000000
H          H       0.79460   0.69630   0.39920   0.0000000000
H          H       0.94630   0.95540   0.35080   0.0000000000
H          H       0.05370   0.04460   0.64920   0.0000000000
H          H       0.55370   0.04460   0.85080   0.0000000000
H          H       0.44630   0.95540   0.14920   0.0000000000
H          H       0.79460   0.19630   0.60080   0.0000000000
H          H       0.20540   0.80370   0.39920   0.0000000000
H          H       0.70540   0.80370   0.10080   0.0000000000
H          H       0.29460   0.19630   0.89920   0.0000000000
N          N       0.54000   0.43120   0.88000   0.0000000000
N          N       0.46000   0.56880   0.12000   0.0000000000
N          N       0.96000   0.56880   0.38000   0.0000000000
N          N       0.04000   0.43120   0.62000   0.0000000000
N          N       0.31880   0.79000   0.13000   0.0000000000
N          N       0.68120   0.21000   0.87000   0.0000000000
N          N       0.18120   0.21000   0.63000   0.0000000000
N          N       0.81880   0.79000   0.37000   0.0000000000
N          N       0.04000   0.93120   0.38000   0.0000000000
N          N       0.96000   0.06880   0.62000   0.0000000000
N          N       0.46000   0.06880   0.88000   0.0000000000
N          N       0.54000   0.93120   0.12000   0.0000000000
N          N       0.81880   0.29000   0.63000   0.0000000000
N          N       0.18120   0.71000   0.37000   0.0000000000
N          N       0.68120   0.71000   0.13000   0.0000000000
N          N       0.31880   0.29000   0.87000   0.0000000000
C          C       0.44017  -0.00873   0.40777   0.0000000000
H          H       0.39926  -0.01694   0.33868   0.0000000000
C          C       0.93956  -0.00811   1.07874   0.0000000000
H          H       0.90142  -0.02291   1.14808   0.0000000000
