data_crystal

_cell_length_a    20.39580
_cell_length_b    20.39580
_cell_length_c    33.77040
_cell_angle_alpha 90.00000
_cell_angle_beta  90.00000
_cell_angle_gamma 120.00000

_space_group_name_Hall 'P 1'
_space_group_name_H-M_alt  'P 1'

loop_
_symmetry_equiv_pos_as_xyz
'x,y,z' 

loop_
_atom_site_label
_atom_site_type_symbol
_atom_site_fract_x
_atom_site_fract_y
_atom_site_fract_z
Si         Si      0.86330   0.66280   0.46070 
Si         Si      0.33720   0.20050   0.12737 
Si         Si      0.79950   0.13670   0.79403 
Si         Si      0.13670   0.33720   0.96070 
Si         Si      0.66280   0.79950   0.62737 
Si         Si      0.20050   0.86330   0.29403 
C          C       0.76770   0.61430   0.43790 
C          C       0.38570   0.15340   0.10457 
C          C       0.84660   0.23230   0.77123 
C          C       0.23230   0.38570   0.93790 
C          C       0.61430   0.84660   0.60457 
C          C       0.15340   0.76770   0.27123 
C          C       0.70340   0.55030   0.45170 
C          C       0.44970   0.15310   0.11837 
C          C       0.84690   0.29660   0.78503 
C          C       0.29660   0.44970   0.95170 
C          C       0.55030   0.84690   0.61837 
C          C       0.15310   0.70340   0.28503 
H          H       0.70700   0.52330   0.47300 
H          H       0.47670   0.18370   0.13967 
H          H       0.81630   0.29300   0.80633 
H          H       0.29300   0.47670   0.97300 
H          H       0.52330   0.81630   0.63967 
H          H       0.18370   0.70700   0.30633 
C          C       0.63380   0.52650   0.43380 
C          C       0.47350   0.10730   0.10047 
C          C       0.89270   0.36620   0.76713 
C          C       0.36620   0.47350   0.93380 
C          C       0.52650   0.89270   0.60047 
C          C       0.10730   0.63380   0.26713 
H          H       0.59070   0.48370   0.44300 
H          H       0.51630   0.10700   0.10967 
H          H       0.89300   0.40930   0.77633 
H          H       0.40930   0.51630   0.94300 
H          H       0.48370   0.89300   0.60967 
H          H       0.10700   0.59070   0.27633 
C          C       0.62840   0.56680   0.40190 
C          C       0.43320   0.06160   0.06857 
C          C       0.93840   0.37160   0.73523 
C          C       0.37160   0.43320   0.90190 
C          C       0.56680   0.93840   0.56857 
C          C       0.06160   0.62840   0.23523 
C          C       0.69280   0.63080   0.38810 
C          C       0.36920   0.06200   0.05477 
C          C       0.93800   0.30720   0.72143 
C          C       0.30720   0.36920   0.88810 
C          C       0.63080   0.93800   0.55477 
C          C       0.06200   0.69280   0.22143 
H          H       0.68920   0.65780   0.36680 
H          H       0.34220   0.03140   0.03347 
H          H       0.96860   0.31080   0.70013 
H          H       0.31080   0.34220   0.86680 
H          H       0.65780   0.96860   0.53347 
H          H       0.03140   0.68920   0.20013 
C          C       0.76240   0.65460   0.40600 
C          C       0.34540   0.10780   0.07267 
C          C       0.89220   0.23760   0.73933 
C          C       0.23760   0.34540   0.90600 
C          C       0.65460   0.89220   0.57267 
C          C       0.10780   0.76240   0.23933 
H          H       0.80540   0.69740   0.39680 
H          H       0.30260   0.10800   0.06347 
H          H       0.89200   0.19460   0.73013 
H          H       0.19460   0.30260   0.89680 
H          H       0.69740   0.89200   0.56347 
H          H       0.10800   0.80540   0.23013 
C          C       0.55330   0.54220   0.38290 
C          C       0.45780   0.01110   0.04957 
C          C       0.98890   0.44670   0.71623 
C          C       0.44670   0.45780   0.88290 
C          C       0.54220   0.98890   0.54957 
C          C       0.01110   0.55330   0.21623 
H          H       0.54110   0.57290   0.36790 
H          H       0.42710   0.96820   0.03457 
H          H       0.03180   0.45890   0.70123 
H          H       0.45890   0.42710   0.86790 
H          H       0.57290   0.03180   0.53457 
H          H       0.96820   0.54110   0.20123 
N          N       0.50820   0.47160   0.39080 
N          N       0.52840   0.03660   0.05747 
N          N       0.96340   0.49180   0.72413 
N          N       0.49180   0.52840   0.89080 
N          N       0.47160   0.96340   0.55747 
N          N       0.03660   0.50820   0.22413 
C          C       0.42990   0.44040   0.37620 
C          C       0.55960   0.98950   0.04287 
C          C       0.01050   0.57010   0.70953 
C          C       0.57010   0.55960   0.87620 
C          C       0.44040   0.01050   0.54287 
C          C       0.98950   0.42990   0.20953 
C          C       0.39140   0.48180   0.37450 
C          C       0.51820   0.90960   0.04117 
C          C       0.09040   0.60860   0.70783 
C          C       0.60860   0.51820   0.87450 
C          C       0.48180   0.09040   0.54117 
C          C       0.90960   0.39140   0.20783 
H          H       0.41550   0.53170   0.38320 
H          H       0.46830   0.88380   0.04987 
H          H       0.11620   0.58450   0.71653 
H          H       0.58450   0.46830   0.88320 
H          H       0.53170   0.11620   0.54987 
H          H       0.88380   0.41550   0.21653 
C          C       0.31670   0.44850   0.35950 
C          C       0.55150   0.86820   0.02617 
C          C       0.13180   0.68330   0.69283 
C          C       0.68330   0.55150   0.85950 
C          C       0.44850   0.13180   0.52617 
C          C       0.86820   0.31670   0.19283 
H          H       0.29290   0.47710   0.35730 
H          H       0.52290   0.81580   0.02397 
H          H       0.18420   0.70710   0.69063 
H          H       0.70710   0.52290   0.85730 
H          H       0.47710   0.18420   0.52397 
H          H       0.81580   0.29290   0.19063 
C          C       0.27860   0.37200   0.34810 
C          C       0.62800   0.90660   0.01477 
C          C       0.09340   0.72140   0.68143 
C          C       0.72140   0.62800   0.84810 
C          C       0.37200   0.09340   0.51477 
C          C       0.90660   0.27860   0.18143 
C          C       0.31730   0.33440   0.34880 
C          C       0.66560   0.98290   0.01547 
C          C       0.01710   0.68270   0.68213 
C          C       0.68270   0.66560   0.84880 
C          C       0.33440   0.01710   0.51547 
C          C       0.98290   0.31730   0.18213 
H          H       0.29390   0.28530   0.33880 
H          H       0.71470   0.00860   0.00547 
H          H       0.99140   0.70610   0.67213 
H          H       0.70610   0.71470   0.83880 
H          H       0.28530   0.99140   0.50547 
H          H       0.00860   0.29390   0.17213 
C          C       0.39060   0.36550   0.36370 
C          C       0.63450   0.02510   0.03037 
C          C       0.97490   0.60940   0.69703 
C          C       0.60940   0.63450   0.86370 
C          C       0.36550   0.97490   0.53037 
C          C       0.02510   0.39060   0.19703 
H          H       0.41340   0.33580   0.36520 
H          H       0.66420   0.07760   0.03187 
H          H       0.92240   0.58660   0.69853 
H          H       0.58660   0.66420   0.86520 
H          H       0.33580   0.92240   0.53187 
H          H       0.07760   0.41340   0.19853 
C          C       0.90950   0.61010   0.44510 
C          C       0.38990   0.29940   0.11177 
C          C       0.70060   0.09050   0.77843 
C          C       0.09050   0.38990   0.94510 
C          C       0.61010   0.70060   0.61177 
C          C       0.29940   0.90950   0.27843 
C          C       0.86370   0.53800   0.42980 
C          C       0.46200   0.32570   0.09647 
C          C       0.67430   0.13630   0.76313 
C          C       0.13630   0.46200   0.92980 
C          C       0.53800   0.67430   0.59647 
C          C       0.32570   0.86370   0.26313 
H          H       0.81170   0.51850   0.42780 
H          H       0.48150   0.29320   0.09447 
H          H       0.70680   0.18830   0.76113 
H          H       0.18830   0.48150   0.92780 
H          H       0.51850   0.70680   0.59447 
H          H       0.29320   0.81170   0.26113 
C          C       0.89540   0.49500   0.41740 
C          C       0.50500   0.40040   0.08407 
C          C       0.59960   0.10460   0.75073 
C          C       0.10460   0.50500   0.91740 
C          C       0.49500   0.59960   0.58407 
C          C       0.40040   0.89540   0.25073 
H          H       0.86470   0.44670   0.40720 
H          H       0.55330   0.41800   0.07387 
H          H       0.58200   0.13530   0.74053 
H          H       0.13530   0.55330   0.90720 
H          H       0.44670   0.58200   0.57387 
H          H       0.41800   0.86470   0.24053 
C          C       0.97310   0.52410   0.42040 
C          C       0.47590   0.44900   0.08707 
C          C       0.55100   0.02690   0.75373 
C          C       0.02690   0.47590   0.92040 
C          C       0.52410   0.55100   0.58707 
C          C       0.44900   0.97310   0.25373 
C          C       0.01900   0.59620   0.43580 
C          C       0.40380   0.42280   0.10247 
C          C       0.57720   0.98100   0.76913 
C          C       0.98100   0.40380   0.93580 
C          C       0.59620   0.57720   0.60247 
C          C       0.42280   0.01900   0.26913 
H          H       0.07100   0.61570   0.43780 
H          H       0.38430   0.45530   0.10447 
H          H       0.54470   0.92900   0.77113 
H          H       0.92900   0.38430   0.93780 
H          H       0.61570   0.54470   0.60447 
H          H       0.45530   0.07100   0.27113 
C          C       0.98720   0.63920   0.44810 
C          C       0.36080   0.34800   0.11477 
C          C       0.65200   0.01280   0.78143 
C          C       0.01280   0.36080   0.94810 
C          C       0.63920   0.65200   0.61477 
C          C       0.34800   0.98720   0.28143 
H          H       0.01790   0.68750   0.45840 
H          H       0.31250   0.33040   0.12507 
H          H       0.66960   0.98210   0.79173 
H          H       0.98210   0.31250   0.95840 
H          H       0.68750   0.66960   0.62507 
H          H       0.33040   0.01790   0.29173 
C          C       0.00510   0.47810   0.40780 
C          C       0.52190   0.52700   0.07447 
C          C       0.47300   0.99490   0.74113 
C          C       0.99490   0.52190   0.90780 
C          C       0.47810   0.47300   0.57447 
C          C       0.52700   0.00510   0.24113 
H          H       0.98150   0.42690   0.41390 
H          H       0.57310   0.55460   0.08057 
H          H       0.44540   0.01850   0.74723 
H          H       0.01850   0.57310   0.91390 
H          H       0.42690   0.44540   0.58057 
H          H       0.55460   0.98150   0.24723 
N          N       0.06490   0.50890   0.38850 
N          N       0.49110   0.55600   0.05517 
N          N       0.44400   0.93510   0.72183 
N          N       0.93510   0.49110   0.88850 
N          N       0.50890   0.44400   0.55517 
N          N       0.55600   0.06490   0.22183 
C          C       0.09710   0.45980   0.37570 
C          C       0.54020   0.63730   0.04237 
C          C       0.36270   0.90290   0.70903 
C          C       0.90290   0.54020   0.87570 
C          C       0.45980   0.36270   0.54237 
C          C       0.63730   0.09710   0.20903 
C          C       0.08550   0.39370   0.39460 
C          C       0.60630   0.69180   0.06127 
C          C       0.30820   0.91450   0.72793 
C          C       0.91450   0.60630   0.89460 
C          C       0.39370   0.30820   0.56127 
C          C       0.69180   0.08550   0.22793 
H          H       0.05640   0.37770   0.41750 
H          H       0.62230   0.67870   0.08417 
H          H       0.32130   0.94360   0.75083 
H          H       0.94360   0.62230   0.91750 
H          H       0.37770   0.32130   0.58417 
H          H       0.67870   0.05640   0.25083 
C          C       0.11600   0.35140   0.38000 
C          C       0.64860   0.76460   0.04667 
C          C       0.23540   0.88400   0.71333 
C          C       0.88400   0.64860   0.88000 
C          C       0.35140   0.23540   0.54667 
C          C       0.76460   0.11600   0.21333 
H          H       0.10600   0.30660   0.39230 
H          H       0.69340   0.79940   0.05897 
H          H       0.20060   0.89400   0.72563 
H          H       0.89400   0.69340   0.89230 
H          H       0.30660   0.20060   0.55897 
H          H       0.79940   0.10600   0.22563 
C          C       0.16150   0.37700   0.34700 
C          C       0.62300   0.78450   0.01367 
C          C       0.21550   0.83850   0.68033 
C          C       0.83850   0.62300   0.84700 
C          C       0.37700   0.21550   0.51367 
C          C       0.78450   0.16150   0.18033 
C          C       0.17460   0.44220   0.32780 
C          C       0.55780   0.73240   0.99447 
C          C       0.26760   0.82540   0.66113 
C          C       0.82540   0.55780   0.82780 
C          C       0.44220   0.26760   0.49447 
C          C       0.73240   0.17460   0.16113 
H          H       0.20460   0.45790   0.30520 
H          H       0.54210   0.74670   0.97187 
H          H       0.25330   0.79540   0.63853 
H          H       0.79540   0.54210   0.80520 
H          H       0.45790   0.25330   0.47187 
H          H       0.74670   0.20460   0.13853 
C          C       0.14350   0.48470   0.34190 
C          C       0.51530   0.65880   0.00857 
C          C       0.34120   0.85650   0.67523 
C          C       0.85650   0.51530   0.84190 
C          C       0.48470   0.34120   0.50857 
C          C       0.65880   0.14350   0.17523 
H          H       0.15330   0.52900   0.32910 
H          H       0.47100   0.62430   0.99577 
H          H       0.37570   0.84670   0.66243 
H          H       0.84670   0.47100   0.82910 
H          H       0.52900   0.37570   0.49577 
H          H       0.62430   0.15330   0.16243 
C          C       0.91280   0.75830   0.43830 
C          C       0.24170   0.15450   0.10497 
C          C       0.84550   0.08720   0.77163 
C          C       0.08720   0.24170   0.93830 
C          C       0.75830   0.84550   0.60497 
C          C       0.15450   0.91280   0.27163 
C          C       0.91140   0.82300   0.45000 
C          C       0.17700   0.08840   0.11667 
C          C       0.91160   0.08860   0.78333 
C          C       0.08860   0.17700   0.95000 
C          C       0.82300   0.91160   0.61667 
C          C       0.08840   0.91140   0.28333 
H          H       0.88540   0.82220   0.47270 
H          H       0.17780   0.06320   0.13937 
H          H       0.93680   0.11460   0.80603 
H          H       0.11460   0.17780   0.97270 
H          H       0.82220   0.93680   0.63937 
H          H       0.06320   0.88540   0.30603 
C          C       0.94890   0.88880   0.42760 
C          C       0.11120   0.06010   0.09427 
C          C       0.93990   0.05110   0.76093 
C          C       0.05110   0.11120   0.92760 
C          C       0.88880   0.93990   0.59427 
C          C       0.06010   0.94890   0.26093 
H          H       0.94800   0.93200   0.43540 
H          H       0.06800   0.01600   0.10207 
H          H       0.98400   0.05200   0.76873 
H          H       0.05200   0.06800   0.93540 
H          H       0.93200   0.98400   0.60207 
H          H       0.01600   0.94800   0.26873 
C          C       0.98780   0.88990   0.39350 
C          C       0.11010   0.09790   0.06017 
C          C       0.90210   0.01220   0.72683 
C          C       0.01220   0.11010   0.89350 
C          C       0.88990   0.90210   0.56017 
C          C       0.09790   0.98780   0.22683 
C          C       0.98920   0.82520   0.38190 
C          C       0.17480   0.16400   0.04857 
C          C       0.83600   0.01080   0.71523 
C          C       0.01080   0.17480   0.88190 
C          C       0.82520   0.83600   0.54857 
C          C       0.16400   0.98920   0.21523 
H          H       0.01520   0.82600   0.35910 
H          H       0.17400   0.18920   0.02577 
H          H       0.81080   0.98480   0.69243 
H          H       0.98480   0.17400   0.85910 
H          H       0.82600   0.81080   0.52577 
H          H       0.18920   0.01520   0.19243 
C          C       0.95170   0.75940   0.40430 
C          C       0.24060   0.19230   0.07097 
C          C       0.80770   0.04830   0.73763 
C          C       0.04830   0.24060   0.90430 
C          C       0.75940   0.80770   0.57097 
C          C       0.19230   0.95170   0.23763 
H          H       0.95260   0.71620   0.39650 
H          H       0.28380   0.23640   0.06317 
H          H       0.76360   0.04740   0.72983 
H          H       0.04740   0.28380   0.89650 
H          H       0.71620   0.76360   0.56317 
H          H       0.23640   0.95260   0.22983 
C          C       0.01900   0.96210   0.36940 
C          C       0.03790   0.05690   0.03607 
C          C       0.94310   0.98100   0.70273 
C          C       0.98100   0.03790   0.86940 
C          C       0.96210   0.94310   0.53607 
C          C       0.05690   0.01900   0.20273 
H          H       0.02860   0.96540   0.34240 
H          H       0.03460   0.06320   0.00907 
H          H       0.93680   0.97140   0.67573 
H          H       0.97140   0.03460   0.84240 
H          H       0.96540   0.93680   0.50907 
H          H       0.06320   0.02860   0.17573 
N          N       0.03120   0.01930   0.39200 
N          N       0.98070   0.01190   0.05867 
N          N       0.98810   0.96880   0.72533 
N          N       0.96880   0.98070   0.89200 
N          N       0.01930   0.98810   0.55867 
N          N       0.01190   0.03120   0.22533 
C          C       0.07080   0.09630   0.37280 
C          C       0.90370   0.97450   0.03947 
C          C       0.02550   0.92920   0.70613 
C          C       0.92920   0.90370   0.87280 
C          C       0.09630   0.02550   0.53947 
C          C       0.97450   0.07080   0.20613 
C          C       0.11660   0.15690   0.39940 
C          C       0.84310   0.95970   0.06607 
C          C       0.04030   0.88340   0.73273 
C          C       0.88340   0.84310   0.89940 
C          C       0.15690   0.04030   0.56607 
C          C       0.95970   0.11660   0.23273 
H          H       0.12010   0.14700   0.42590 
H          H       0.85300   0.97310   0.09257 
H          H       0.02690   0.87990   0.75923 
H          H       0.87990   0.85300   0.92590 
H          H       0.14700   0.02690   0.59257 
H          H       0.97310   0.12010   0.25923 
C          C       0.15550   0.23060   0.38530 
C          C       0.76940   0.92490   0.05197 
C          C       0.07510   0.84450   0.71863 
C          C       0.84450   0.76940   0.88530 
C          C       0.23060   0.07510   0.55197 
C          C       0.92490   0.15550   0.21863 
H          H       0.18400   0.26950   0.40310 
H          H       0.73050   0.91450   0.06977 
H          H       0.08550   0.81600   0.73643 
H          H       0.81600   0.73050   0.90310 
H          H       0.26950   0.08550   0.56977 
H          H       0.91450   0.18400   0.23643 
C          C       0.15380   0.24840   0.34660 
C          C       0.75160   0.90540   0.01327 
C          C       0.09460   0.84620   0.67993 
C          C       0.84620   0.75160   0.84660 
C          C       0.24840   0.09460   0.51327 
C          C       0.90540   0.15380   0.17993 
C          C       0.10910   0.19130   0.32100 
C          C       0.80870   0.91780   0.98767 
C          C       0.08220   0.89090   0.65433 
C          C       0.89090   0.80870   0.82100 
C          C       0.19130   0.08220   0.48767 
C          C       0.91780   0.10910   0.15433 
H          H       0.10550   0.20230   0.29460 
H          H       0.79770   0.90320   0.96127 
H          H       0.09680   0.89450   0.62793 
H          H       0.89450   0.79770   0.79460 
H          H       0.20230   0.09680   0.46127 
H          H       0.90320   0.10550   0.12793 
C          C       0.06810   0.11490   0.33450 
C          C       0.88510   0.95320   0.00117 
C          C       0.04680   0.93190   0.66783 
C          C       0.93190   0.88510   0.83450 
C          C       0.11490   0.04680   0.50117 
C          C       0.95320   0.06810   0.16783 
H          H       0.03880   0.07670   0.31660 
H          H       0.92330   0.96210   0.98327 
H          H       0.03790   0.96120   0.64993 
H          H       0.96120   0.92330   0.81660 
H          H       0.07670   0.03790   0.48327 
H          H       0.96210   0.03880   0.14993 
C          C       0.86350   0.66860   0.51460 
C          C       0.33140   0.19490   0.18127 
C          C       0.80510   0.13650   0.84793 
C          C       0.13650   0.33140   0.01460 
C          C       0.66860   0.80510   0.68127 
C          C       0.19490   0.86350   0.34793 
C          C       0.81570   0.60390   0.53610 
C          C       0.39610   0.21180   0.20277 
C          C       0.78820   0.18430   0.86943 
C          C       0.18430   0.39610   0.03610 
C          C       0.60390   0.78820   0.70277 
C          C       0.21180   0.81570   0.36943 
H          H       0.78640   0.55810   0.52310 
H          H       0.44190   0.22830   0.18977 
H          H       0.77170   0.21360   0.85643 
H          H       0.21360   0.44190   0.02310 
H          H       0.55810   0.77170   0.68977 
H          H       0.22830   0.78640   0.35643 
C          C       0.81180   0.60780   0.57710 
C          C       0.39220   0.20400   0.24377 
C          C       0.79600   0.18820   0.91043 
C          C       0.18820   0.39220   0.07710 
C          C       0.60780   0.79600   0.74377 
C          C       0.20400   0.81180   0.41043 
H          H       0.77980   0.56450   0.59150 
H          H       0.43550   0.21530   0.25817 
H          H       0.78470   0.22020   0.92483 
H          H       0.22020   0.43550   0.09150 
H          H       0.56450   0.78470   0.75817 
H          H       0.21530   0.77980   0.42483 
C          C       0.85560   0.67630   0.59650 
C          C       0.32370   0.17930   0.26317 
C          C       0.82070   0.14440   0.92983 
C          C       0.14440   0.32370   0.09650 
C          C       0.67630   0.82070   0.76317 
C          C       0.17930   0.85560   0.42983 
C          C       0.90330   0.74100   0.57490 
C          C       0.25900   0.16230   0.24157 
C          C       0.83770   0.09670   0.90823 
C          C       0.09670   0.25900   0.07490 
C          C       0.74100   0.83770   0.74157 
C          C       0.16230   0.90330   0.40823 
H          H       0.93260   0.78680   0.58790 
H          H       0.21320   0.14580   0.25457 
H          H       0.85420   0.06740   0.92123 
H          H       0.06740   0.21320   0.08790 
H          H       0.78680   0.85420   0.75457 
H          H       0.14580   0.93260   0.42123 
C          C       0.90730   0.73710   0.53400 
C          C       0.26290   0.17020   0.20067 
C          C       0.82980   0.09270   0.86733 
C          C       0.09270   0.26290   0.03400 
C          C       0.73710   0.82980   0.70067 
C          C       0.17020   0.90730   0.36733 
H          H       0.93920   0.78040   0.51960 
H          H       0.21960   0.15880   0.18627 
H          H       0.84120   0.06080   0.85293 
H          H       0.06080   0.21960   0.01960 
H          H       0.78040   0.84120   0.68627 
H          H       0.15880   0.93920   0.35293 
C          C       0.84690   0.68000   0.63890 
C          C       0.32000   0.16690   0.30557 
C          C       0.83310   0.15310   0.97223 
C          C       0.15310   0.32000   0.13890 
C          C       0.68000   0.83310   0.80557 
C          C       0.16690   0.84690   0.47223 
H          H       0.89220   0.70900   0.65230 
H          H       0.29100   0.18320   0.31897 
H          H       0.81680   0.10780   0.98563 
H          H       0.10780   0.29100   0.15230 
H          H       0.70900   0.81680   0.81897 
H          H       0.18320   0.89220   0.48563 
N          N       0.79320   0.65230   0.65940 
N          N       0.34770   0.14090   0.32607 
N          N       0.85910   0.20680   0.99273 
N          N       0.20680   0.34770   0.15940 
N          N       0.65230   0.85910   0.82607 
N          N       0.14090   0.79320   0.49273 
C          C       0.79800   0.65640   0.70360 
C          C       0.34360   0.14160   0.37027 
C          C       0.85840   0.20200   0.03693 
C          C       0.20200   0.34360   0.20360 
C          C       0.65640   0.85840   0.87027 
C          C       0.14160   0.79800   0.53693 
C          C       0.85840   0.66670   0.72680 
C          C       0.33330   0.19170   0.39347 
C          C       0.80830   0.14160   0.06013 
C          C       0.14160   0.33330   0.22680 
C          C       0.66670   0.80830   0.89347 
C          C       0.19170   0.85840   0.56013 
H          H       0.90060   0.67080   0.71380 
H          H       0.32920   0.22980   0.38047 
H          H       0.77020   0.09940   0.04713 
H          H       0.09940   0.32920   0.21380 
H          H       0.67080   0.77020   0.88047 
H          H       0.22980   0.90060   0.54713 
C          C       0.86090   0.67100   0.76680 
C          C       0.32900   0.18990   0.43347 
C          C       0.81010   0.13910   0.10013 
C          C       0.13910   0.32900   0.26680 
C          C       0.67100   0.81010   0.93347 
C          C       0.18990   0.86090   0.60013 
H          H       0.90380   0.67830   0.78040 
H          H       0.32170   0.22550   0.44707 
H          H       0.77450   0.09620   0.11373 
H          H       0.09620   0.32170   0.28040 
H          H       0.67830   0.77450   0.94707 
H          H       0.22550   0.90380   0.61373 
C          C       0.79910   0.66390   0.78740 
C          C       0.33610   0.13520   0.45407 
C          C       0.86480   0.20090   0.12073 
C          C       0.20090   0.33610   0.28740 
C          C       0.66390   0.86480   0.95407 
C          C       0.13520   0.79910   0.62073 
C          C       0.73490   0.65130   0.76560 
C          C       0.34870   0.08360   0.43227 
C          C       0.91640   0.26510   0.09893 
C          C       0.26510   0.34870   0.26560 
C          C       0.65130   0.91640   0.93227 
C          C       0.08360   0.73490   0.59893 
H          H       0.69220   0.64430   0.77910 
H          H       0.35570   0.04790   0.44577 
H          H       0.95210   0.30780   0.11243 
H          H       0.30780   0.35570   0.27910 
H          H       0.64430   0.95210   0.94577 
H          H       0.04790   0.69220   0.61243 
C          C       0.73370   0.64910   0.72520 
C          C       0.35090   0.08460   0.39187 
C          C       0.91540   0.26630   0.05853 
C          C       0.26630   0.35090   0.22520 
C          C       0.64910   0.91540   0.89187 
C          C       0.08460   0.73370   0.55853 
H          H       0.69140   0.64290   0.71150 
H          H       0.35710   0.04850   0.37817 
H          H       0.95150   0.30860   0.04483 
H          H       0.30860   0.35710   0.21150 
H          H       0.64290   0.95150   0.87817 
H          H       0.04850   0.69140   0.54483 
C          C       0.80120   0.66670   0.83180 
C          C       0.33330   0.13450   0.49847 
C          C       0.86550   0.19880   0.16513 
C          C       0.19880   0.33330   0.33180 
C          C       0.66670   0.86550   0.99847 
C          C       0.13450   0.80120   0.66513 
