data_crystal
 
_cell_length_a    20.89200
_cell_length_b    45.63740
_cell_length_c    45.88780
_cell_angle_alpha 119.46300
_cell_angle_beta  90.00000
_cell_angle_gamma 90.00000
 
_symmetry_space_group_name_Hall 'P 1'
_symmetry_space_group_name_H-M  'P 1'
 
loop_
_symmetry_equiv_pos_as_xyz
 'x,y,z' 
 
loop_
_atom_site_label
_atom_site_type_symbol
_atom_site_fract_x
_atom_site_fract_y
_atom_site_fract_z
H          H       0.08135   0.55384   0.56033 
H          H       0.08135   0.44616   0.43967 
H          H       0.15624   0.60262   0.56921 
H          H       0.15624   0.39738   0.43079 
H          H       0.17906   0.55663   0.45829 
H          H       0.17906   0.44337   0.54171 
H          H       0.10364   0.50767   0.44966 
H          H       0.10364   0.49233   0.55034 
H          H       0.96224   0.51488   0.45104 
H          H       0.96224   0.48512   0.54896 
H          H       0.88829   0.56338   0.45824 
H          H       0.88829   0.43662   0.54176 
H          H       0.86472   0.59562   0.56684 
H          H       0.86472   0.40438   0.43316 
H          H       0.93921   0.54673   0.55929 
H          H       0.93921   0.45327   0.44071 
H          H       0.02737   0.47911   0.93068 
H          H       0.02737   0.52089   0.06932 
H          H       0.07884   0.42427   0.88671 
H          H       0.07884   0.57573   0.11329 
H          H       0.08144   0.38454   0.91575 
H          H       0.08144   0.61546   0.08425 
H          H       0.14254   0.40714   0.97388 
H          H       0.14254   0.59286   0.02612 
H          H       0.91361   0.43710   0.98952 
H          H       0.91361   0.56290   0.01048 
H          H       0.84012   0.39396   0.94245 
H          H       0.84012   0.60604   0.05755 
H          H       0.81904   0.46454   0.90166 
H          H       0.81904   0.53546   0.09834 
H          H       0.89278   0.50782   0.94931 
H          H       0.89278   0.49218   0.05069 
H          H       0.61840   0.96021   0.49963 
H          H       0.61840   0.03979   0.50037 
H          H       0.62388   0.90746   0.50639 
H          H       0.62388   0.09254   0.49361 
H          H       0.42966   0.93115   0.55356 
H          H       0.42966   0.06885   0.44644 
H          H       0.42353   0.98359   0.54551 
H          H       0.42353   0.01641   0.45449 
H          H       0.41241   0.95774   0.46772 
H          H       0.41241   0.04226   0.53228 
H          H       0.40317   0.89903   0.41549 
H          H       0.40317   0.10097   0.58451 
H          H       0.59905   0.91082   0.38314 
H          H       0.59905   0.08918   0.61686 
H          H       0.60867   0.96954   0.43637 
H          H       0.60867   0.03046   0.56363 
H          H       0.62684   0.25714   0.46669 
H          H       0.62684   0.74286   0.53331 
H          H       0.52276   0.34419   0.47320 
H          H       0.52276   0.65581   0.52680 
H          H       0.41620   0.25438   0.45791 
H          H       0.41620   0.74562   0.54209 
H          H       0.47251   0.19574   0.40802 
H          H       0.47251   0.80426   0.59198 
H          H       0.64145   0.33350   0.53065 
H          H       0.64145   0.66650   0.46935 
H          H       0.40520   0.29049   0.40822 
H          H       0.40520   0.70951   0.59178 
H          H       0.46465   0.13740   0.40334 
H          H       0.46465   0.86260   0.59666 
H          H       0.56027   0.17730   0.50298 
H          H       0.56027   0.82270   0.49702 
H          H       0.56630   0.23648   0.50813 
H          H       0.56630   0.76352   0.49187 
H          H       0.30529   0.32270   0.40619 
H          H       0.30529   0.67730   0.59381 
H          H       0.29631   0.37785   0.51806 
H          H       0.29631   0.62215   0.48194 
H          H       0.39694   0.34510   0.51997 
H          H       0.39694   0.65490   0.48003 
H          H       0.64845   0.30897   0.42368 
H          H       0.64845   0.69103   0.57632 
H          H       0.74831   0.34658   0.43614 
H          H       0.74831   0.65342   0.56386 
H          H       0.74156   0.37095   0.54353 
H          H       0.74156   0.62905   0.45647 
H          H       0.47066   0.10429   0.42998 
H          H       0.47066   0.89571   0.57002 
H          H       0.81794   0.39659   0.52679 
H          H       0.81794   0.60341   0.47321 
H          H       0.22841   0.36427   0.43358 
H          H       0.22841   0.63573   0.56642 
H          H       0.57753   0.71724   0.23565 
H          H       0.57753   0.28276   0.76435 
H          H       0.47666   0.64272   0.14396 
H          H       0.47666   0.35728   0.85604 
H          H       0.37142   0.72718   0.22483 
H          H       0.37142   0.27282   0.77517 
H          H       0.40867   0.73345   0.28806 
H          H       0.40867   0.26655   0.71194 
H          H       0.57977   0.63007   0.20137 
H          H       0.57977   0.36993   0.79863 
H          H       0.33698   0.71837   0.16350 
H          H       0.33698   0.28163   0.83650 
H          H       0.40462   0.78836   0.34462 
H          H       0.40462   0.21164   0.65538 
H          H       0.53443   0.83785   0.30424 
H          H       0.53443   0.16215   0.69576 
H          H       0.53708   0.78264   0.24688 
H          H       0.53708   0.21736   0.75312 
H          H       0.23375   0.69520   0.12939 
H          H       0.23375   0.30480   0.87061 
H          H       0.26860   0.59560   0.12326 
H          H       0.26860   0.40440   0.87674 
H          H       0.37164   0.61937   0.15866 
H          H       0.37164   0.38063   0.84134 
H          H       0.61408   0.68802   0.14781 
H          H       0.61408   0.31198   0.85219 
H          H       0.71264   0.65106   0.11840 
H          H       0.71264   0.34894   0.88160 
H          H       0.67835   0.59292   0.17234 
H          H       0.67835   0.40708   0.82766 
H          H       0.42778   0.84622   0.37665 
H          H       0.42778   0.15378   0.62335 
H          H       0.75893   0.57595   0.13241 
H          H       0.75893   0.42405   0.86759 
H          H       0.15471   0.65195   0.10672 
H          H       0.15471   0.34805   0.89328 
C          C       0.09176   0.52829   0.50472 
C          C       0.09176   0.47171   0.49528 
C          C       0.95156   0.52828   0.50462 
C          C       0.95156   0.47172   0.49538 
C          C       0.10427   0.55465   0.53821 
C          C       0.10427   0.44535   0.46179 
C          C       0.14546   0.58136   0.54288 
C          C       0.14546   0.41864   0.45712 
C          C       0.17290   0.58092   0.51389 
C          C       0.17290   0.41908   0.48611 
C          C       0.15800   0.55534   0.48053 
C          C       0.15800   0.44466   0.51947 
C          C       0.11685   0.52861   0.47578 
C          C       0.11685   0.47139   0.52422 
C          C       0.93943   0.53264   0.47622 
C          C       0.93943   0.46736   0.52378 
C          C       0.89876   0.55935   0.48038 
C          C       0.89876   0.44065   0.51962 
C          C       0.87139   0.58093   0.51286 
C          C       0.87139   0.41907   0.48714 
C          C       0.88578   0.57728   0.54136 
C          C       0.88578   0.42272   0.45864 
C          C       0.92643   0.55061   0.53729 
C          C       0.92643   0.44939   0.46271 
C          C       0.05120   0.47112   0.97375 
C          C       0.05120   0.52888   0.02625 
C          C       0.90378   0.47420   0.97146 
C          C       0.90378   0.52580   0.02854 
C          C       0.05084   0.46189   0.93897 
C          C       0.05084   0.53811   0.06103 
C          C       0.07968   0.43113   0.91417 
C          C       0.07968   0.56887   0.08583 
C          C       0.11089   0.40865   0.92664 
C          C       0.11089   0.59135   0.07336 
C          C       0.11467   0.42174   0.96384 
C          C       0.11467   0.57826   0.03616 
C          C       0.08326   0.44928   0.97889 
C          C       0.08326   0.55072   0.02111 
C          C       0.89137   0.44272   0.97013 
C          C       0.89137   0.55728   0.02987 
C          C       0.85106   0.41924   0.94424 
C          C       0.85106   0.58076   0.05576 
C          C       0.82473   0.42790   0.92070 
C          C       0.82473   0.57210   0.07930 
C          C       0.83950   0.45913   0.92154 
C          C       0.83950   0.54087   0.07846 
C          C       0.87963   0.48270   0.94738 
C          C       0.87963   0.51730   0.05262 
C          C       0.52020   0.97367   0.52164 
C          C       0.52020   0.02633   0.47836 
C          C       0.51615   0.00194   0.51658 
C          C       0.51615   0.99806   0.48342 
C          C       0.51116   0.96587   0.45435 
C          C       0.51116   0.03413   0.54565 
C          C       0.57681   0.95318   0.51104 
C          C       0.57681   0.04682   0.48896 
C          C       0.57976   0.92428   0.51504 
C          C       0.57976   0.07572   0.48496 
C          C       0.52667   0.91691   0.53002 
C          C       0.52667   0.08309   0.46998 
C          C       0.47045   0.93778   0.54137 
C          C       0.47045   0.06222   0.45863 
C          C       0.46721   0.96643   0.53702 
C          C       0.46721   0.03357   0.46298 
C          C       0.45334   0.94687   0.44897 
C          C       0.45334   0.05313   0.55103 
C          C       0.44841   0.91463   0.42009 
C          C       0.44841   0.08537   0.57991 
C          C       0.50136   0.90232   0.39708 
C          C       0.50136   0.09768   0.60292 
C          C       0.55858   0.92143   0.40220 
C          C       0.55858   0.07857   0.59780 
C          C       0.56378   0.95357   0.43124 
C          C       0.56378   0.04643   0.56876 
C          C       0.57955   0.26945   0.46647 
C          C       0.57955   0.73055   0.53353 
C          C       0.58189   0.30258   0.47089 
C          C       0.58189   0.69742   0.52911 
C          C       0.52299   0.31781   0.47000 
C          C       0.52299   0.68219   0.53000 
C          C       0.46307   0.30123   0.46518 
C          C       0.46307   0.69877   0.53482 
C          C       0.46320   0.26837   0.46142 
C          C       0.46320   0.73163   0.53858 
C          C       0.52075   0.25166   0.46186 
C          C       0.52075   0.74834   0.53814 
C          C       0.51892   0.21909   0.45852 
C          C       0.51892   0.78091   0.54148 
C          C       0.49108   0.19154   0.42902 
C          C       0.49108   0.80846   0.57098 
C          C       0.66527   0.33710   0.51030 
C          C       0.66527   0.66290   0.48970 
C          C       0.63958   0.32065   0.47691 
C          C       0.63958   0.67935   0.52309 
C          C       0.40615   0.31723   0.46419 
C          C       0.40615   0.68277   0.53581 
C          C       0.38105   0.31011   0.43220 
C          C       0.38105   0.68989   0.56780 
C          C       0.48708   0.15927   0.42643 
C          C       0.48708   0.84073   0.57357 
C          C       0.51171   0.15527   0.45329 
C          C       0.51171   0.84473   0.54671 
C          C       0.54066   0.18214   0.48256 
C          C       0.54066   0.81786   0.51744 
C          C       0.54401   0.21440   0.48518 
C          C       0.54401   0.78560   0.51482 
C          C       0.32605   0.32793   0.43125 
C          C       0.32605   0.67207   0.56875 
C          C       0.29802   0.35227   0.46221 
C          C       0.29802   0.64773   0.53779 
C          C       0.32155   0.35876   0.49420 
C          C       0.32155   0.64124   0.50580 
C          C       0.37643   0.34092   0.49521 
C          C       0.37643   0.65908   0.50479 
C          C       0.66917   0.32330   0.45001 
C          C       0.66917   0.67670   0.54999 
C          C       0.72418   0.34400   0.45703 
C          C       0.72418   0.65600   0.54297 
C          C       0.74800   0.36128   0.49069 
C          C       0.74800   0.63872   0.50931 
C          C       0.72038   0.35772   0.51725 
C          C       0.72038   0.64228   0.48275 
C          C       0.50416   0.12330   0.44989 
C          C       0.50416   0.87670   0.55011 
C          C       0.79819   0.38450   0.50024 
C          C       0.79819   0.61550   0.49976 
C          C       0.24753   0.37083   0.45934 
C          C       0.24753   0.62917   0.54066 
C          C       0.53222   0.70732   0.21999 
C          C       0.53222   0.29268   0.78001 
C          C       0.53467   0.67766   0.18815 
C          C       0.53467   0.32234   0.81185 
C          C       0.47667   0.66621   0.16969 
C          C       0.47667   0.33379   0.83031 
C          C       0.41679   0.68282   0.18177 
C          C       0.41679   0.31718   0.81823 
C          C       0.41755   0.71258   0.21380 
C          C       0.41755   0.28742   0.78620 
C          C       0.47421   0.72556   0.23345 
C          C       0.47421   0.27444   0.76655 
C          C       0.47287   0.75552   0.26479 
C          C       0.47287   0.24448   0.73521 
C          C       0.43592   0.75668   0.29184 
C          C       0.43592   0.24332   0.70816 
C          C       0.60921   0.63384   0.18258 
C          C       0.60921   0.36616   0.81742 
C          C       0.59169   0.65961   0.17471 
C          C       0.59169   0.34039   0.82529 
C          C       0.35972   0.67007   0.16281 
C          C       0.35972   0.32993   0.83719 
C          C       0.32148   0.69136   0.15469 
C          C       0.32148   0.30864   0.84531 
C          C       0.43399   0.78702   0.32308 
C          C       0.43399   0.21298   0.67692 
C          C       0.46949   0.81530   0.32653 
C          C       0.46949   0.18470   0.67347 
C          C       0.50684   0.81454   0.29998 
C          C       0.50684   0.18546   0.70002 
C          C       0.50829   0.78430   0.26872 
C          C       0.50829   0.21570   0.73128 
C          C       0.26447   0.67844   0.13567 
C          C       0.26447   0.32156   0.86433 
C          C       0.24734   0.64431   0.12489 
C          C       0.24734   0.35569   0.87511 
C          C       0.28459   0.62264   0.13258 
C          C       0.28459   0.37736   0.86742 
C          C       0.34107   0.63579   0.15185 
C          C       0.34107   0.36421   0.84815 
C          C       0.62855   0.66654   0.15235 
C          C       0.62855   0.33346   0.84765 
C          C       0.68271   0.64614   0.13630 
C          C       0.68271   0.35386   0.86370 
C          C       0.69828   0.61958   0.14323 
C          C       0.69828   0.38042   0.85677 
C          C       0.66348   0.61351   0.16652 
C          C       0.66348   0.38649   0.83348 
C          C       0.46510   0.84446   0.35776 
C          C       0.46510   0.15554   0.64224 
C          C       0.74666   0.59629   0.12579 
C          C       0.74666   0.40371   0.87421 
C          C       0.19033   0.63304   0.10670 
C          C       0.19033   0.36696   0.89330 
C          C       0.01581   0.50000   0.00000 
C          C       0.94107   0.50000   0.00000 
C          C       0.98744   0.50000   0.50000 
C          C       0.05578   0.50000   0.50000 
N          N       0.53391   0.11196   0.46870 
N          N       0.53391   0.88804   0.53130 
N          N       0.82735   0.39469   0.48035 
N          N       0.82735   0.60531   0.51965 
N          N       0.21749   0.39706   0.48522 
N          N       0.21749   0.60294   0.51478 
N          N       0.50236   0.87221   0.36846 
N          N       0.50236   0.12779   0.63154 
N          N       0.78234   0.59523   0.10060 
N          N       0.78234   0.40477   0.89940 
N          N       0.17220   0.60057   0.08824 
N          N       0.17220   0.39943   0.91176 
