data_crystal

_cell_length_a    17.83710
_cell_length_b    41.28270
_cell_length_c    41.58360
_cell_angle_alpha 119.28900
_cell_angle_beta  90.00000
_cell_angle_gamma 90.00000

_space_group_name_Hall 'P 1'
_space_group_name_H-M_alt  'P 1'

loop_
_symmetry_equiv_pos_as_xyz
'x,y,z' 

loop_
_atom_site_label
_atom_site_type_symbol
_atom_site_fract_x
_atom_site_fract_y
_atom_site_fract_z
H          H       0.05197   0.01351   0.57025 
H          H       0.05197   0.98649   0.42975 
H          H       0.13214   0.05656   0.61905 
H          H       0.13214   0.94344   0.38095 
H          H       0.22250   0.09175   0.54779 
H          H       0.22250   0.90825   0.45221 
H          H       0.14246   0.04910   0.49892 
H          H       0.14246   0.95090   0.50108 
H          H       0.96632   0.07415   0.52813 
H          H       0.96632   0.92585   0.47187 
H          H       0.88820   0.11826   0.57712 
H          H       0.88820   0.88174   0.42288 
H          H       0.79503   0.03200   0.59051 
H          H       0.79503   0.96800   0.40949 
H          H       0.87325   0.98768   0.54182 
H          H       0.87325   0.01232   0.45818 
H          H       0.10327   0.54849   0.49858 
H          H       0.10327   0.45151   0.50142 
H          H       0.18208   0.54077   0.44853 
H          H       0.18208   0.45923   0.55147 
H          H       0.08926   0.43499   0.38052 
H          H       0.08926   0.56501   0.61948 
H          H       0.01100   0.44205   0.43066 
H          H       0.01100   0.55795   0.56934 
H          H       0.84194   0.44183   0.46028 
H          H       0.84194   0.55817   0.53972 
H          H       0.76635   0.43001   0.40827 
H          H       0.76635   0.56999   0.59173 
H          H       0.84162   0.52943   0.41422 
H          H       0.84162   0.47057   0.58578 
H          H       0.91820   0.54166   0.46682 
H          H       0.91820   0.45834   0.53318 
H          H       0.67124   0.45244   0.95029 
H          H       0.67124   0.54756   0.04971 
H          H       0.66600   0.39296   0.89445 
H          H       0.66600   0.60704   0.10555 
H          H       0.45438   0.37284   0.92541 
H          H       0.45438   0.62716   0.07459 
H          H       0.45875   0.43163   0.98090 
H          H       0.45875   0.56837   0.01910 
H          H       0.45279   0.48609   0.94974 
H          H       0.45279   0.51391   0.05026 
H          H       0.43675   0.48584   0.89269 
H          H       0.43675   0.51416   0.10731 
H          H       0.63856   0.54484   0.91018 
H          H       0.63856   0.45516   0.08982 
H          H       0.65604   0.54467   0.96762 
H          H       0.65604   0.45533   0.03238 
H          H       0.40016   0.75446   0.25969 
H          H       0.40016   0.24554   0.74031 
H          H       0.60398   0.76886   0.30426 
H          H       0.60398   0.23114   0.69574 
H          H       0.41507   0.83359   0.25622 
H          H       0.41507   0.16641   0.74378 
H          H       0.39393   0.69820   0.20222 
H          H       0.39393   0.30180   0.79778 
H          H       0.60656   0.72086   0.17357 
H          H       0.60656   0.27914   0.82643 
H          H       0.61072   0.77821   0.23061 
H          H       0.61072   0.22179   0.76939 
H          H       0.30546   0.87009   0.28551 
H          H       0.30546   0.12991   0.71449 
H          H       0.56811   0.87060   0.30661 
H          H       0.56811   0.12940   0.69339 
H          H       0.67828   0.89569   0.34333 
H          H       0.67828   0.10431   0.65667 
H          H       0.71527   0.79337   0.34073 
H          H       0.71527   0.20663   0.65927 
H          H       0.44428   0.65797   0.14060 
H          H       0.44428   0.34203   0.85940 
H          H       0.80015   0.84575   0.37669 
H          H       0.80015   0.15425   0.62331 
H          H       0.22317   0.90150   0.33990 
H          H       0.22317   0.09850   0.66010 
H          H       0.39057   0.48481   0.72779 
H          H       0.39057   0.51519   0.27221 
H          H       0.58283   0.48906   0.69044 
H          H       0.58283   0.51094   0.30956 
H          H       0.35561   0.58004   0.75186 
H          H       0.35561   0.41996   0.24814 
H          H       0.39518   0.47068   0.77696 
H          H       0.39518   0.52932   0.22304 
H          H       0.56346   0.55186   0.82892 
H          H       0.56346   0.44814   0.17108 
H          H       0.55722   0.56625   0.77979 
H          H       0.55722   0.43375   0.22021 
H          H       0.24195   0.58236   0.72183 
H          H       0.24195   0.41764   0.27817 
H          H       0.31903   0.49159   0.62223 
H          H       0.31903   0.50841   0.37777 
H          H       0.43136   0.48992   0.65251 
H          H       0.43136   0.51008   0.34749 
H          H       0.50540   0.59591   0.71880 
H          H       0.50540   0.40409   0.28120 
H          H       0.60904   0.60424   0.68685 
H          H       0.60904   0.39576   0.31315 
H          H       0.68674   0.49671   0.65796 
H          H       0.68674   0.50329   0.34204 
H          H       0.44339   0.48260   0.83622 
H          H       0.44339   0.51740   0.16378 
H          H       0.71707   0.57937   0.64675 
H          H       0.71707   0.42063   0.35325 
H          H       0.16902   0.56187   0.66431 
H          H       0.16902   0.43813   0.33569 
H          H       0.34720   0.14255   0.62117 
H          H       0.34720   0.85745   0.37883 
H          H       0.45562   0.17892   0.65086 
H          H       0.45562   0.82108   0.34914 
C          C       0.09077   0.02681   0.52986 
C          C       0.09077   0.97319   0.47014 
C          C       0.92630   0.02674   0.53004 
C          C       0.92630   0.97326   0.46996 
C          C       0.08765   0.02992   0.56526 
C          C       0.08765   0.97008   0.43474 
C          C       0.13462   0.05507   0.59385 
C          C       0.13462   0.94493   0.40615 
C          C       0.18548   0.07744   0.58744 
C          C       0.18548   0.92256   0.41256 
C          C       0.18661   0.07532   0.55263 
C          C       0.18661   0.92468   0.44737 
C          C       0.13983   0.05032   0.52409 
C          C       0.13983   0.94968   0.47591 
C          C       0.93052   0.06499   0.54116 
C          C       0.93052   0.93501   0.45884 
C          C       0.88470   0.09086   0.56982 
C          C       0.88470   0.90914   0.43018 
C          C       0.83369   0.07890   0.58777 
C          C       0.83369   0.92110   0.41223 
C          C       0.83114   0.04099   0.57747 
C          C       0.83114   0.95901   0.42253 
C          C       0.87684   0.01513   0.54894 
C          C       0.87684   0.98487   0.45106 
C          C       0.05049   0.49572   0.46943 
C          C       0.05049   0.50428   0.53057 
C          C       0.88640   0.49305   0.46858 
C          C       0.88640   0.50695   0.53142 
C          C       0.09988   0.52437   0.47388 
C          C       0.09988   0.47563   0.52612 
C          C       0.14587   0.51998   0.44463 
C          C       0.14587   0.48002   0.55537 
C          C       0.14330   0.48712   0.41036 
C          C       0.14330   0.51288   0.58964 
C          C       0.09236   0.45889   0.40527 
C          C       0.09236   0.54111   0.59473 
C          C       0.04654   0.46311   0.43465 
C          C       0.04654   0.53689   0.56535 
C          C       0.84246   0.46051   0.45081 
C          C       0.84246   0.53949   0.54919 
C          C       0.79835   0.45345   0.42009 
C          C       0.79835   0.54655   0.57991 
C          C       0.79700   0.47879   0.40649 
C          C       0.79700   0.52121   0.59351 
C          C       0.84184   0.51091   0.42384 
C          C       0.84184   0.48909   0.57616 
C          C       0.88637   0.51805   0.45457 
C          C       0.88637   0.48195   0.54543 
C          C       0.56466   0.44790   0.97025 
C          C       0.56466   0.55210   0.02975 
C          C       0.56363   0.48362   0.00167 
C          C       0.56363   0.51638   0.99833 
C          C       0.55617   0.51522   0.96394 
C          C       0.55617   0.48478   0.03606 
C          C       0.62522   0.43588   0.94518 
C          C       0.62522   0.56412   0.05482 
C          C       0.62227   0.40125   0.91261 
C          C       0.62227   0.59875   0.08739 
C          C       0.55871   0.37838   0.90435 
C          C       0.55871   0.62162   0.09565 
C          C       0.49978   0.38960   0.93021 
C          C       0.49978   0.61040   0.06979 
C          C       0.50273   0.42397   0.96285 
C          C       0.50273   0.57603   0.03715 
C          C       0.49289   0.49821   0.94156 
C          C       0.49289   0.50179   0.05844 
C          C       0.48328   0.49815   0.90802 
C          C       0.48328   0.50185   0.09198 
C          C       0.53640   0.51542   0.89623 
C          C       0.53640   0.48458   0.10377 
C          C       0.59964   0.53225   0.91841 
C          C       0.59964   0.46775   0.08159 
C          C       0.60972   0.53216   0.95194 
C          C       0.60972   0.46784   0.04806 
C          C       0.50604   0.77215   0.25106 
C          C       0.50604   0.22785   0.74894 
C          C       0.44374   0.74798   0.24165 
C          C       0.44374   0.25202   0.75835 
C          C       0.61967   0.79559   0.31245 
C          C       0.61967   0.20441   0.68755 
C          C       0.57496   0.81775   0.30284 
C          C       0.57496   0.18225   0.69716 
C          C       0.44580   0.82455   0.30024 
C          C       0.44580   0.17545   0.69976 
C          C       0.40067   0.83867   0.28208 
C          C       0.40067   0.16133   0.71792 
C          C       0.44026   0.71470   0.20786 
C          C       0.44026   0.28530   0.79214 
C          C       0.49994   0.70402   0.18241 
C          C       0.49994   0.29598   0.81759 
C          C       0.56254   0.72779   0.19151 
C          C       0.56254   0.27221   0.80849 
C          C       0.56509   0.76140   0.22512 
C          C       0.56509   0.23860   0.77488 
C          C       0.33657   0.86003   0.29935 
C          C       0.33657   0.13997   0.70065 
C          C       0.31597   0.86785   0.33532 
C          C       0.31597   0.13215   0.66468 
C          C       0.42435   0.83151   0.33572 
C          C       0.42435   0.16849   0.66428 
C          C       0.59870   0.85431   0.31392 
C          C       0.59870   0.14569   0.68608 
C          C       0.66347   0.86889   0.33542 
C          C       0.66347   0.13111   0.66458 
C          C       0.70674   0.84731   0.34647 
C          C       0.70674   0.15269   0.65353 
C          C       0.68477   0.81009   0.33389 
C          C       0.68477   0.18991   0.66611 
C          C       0.49554   0.67040   0.14901 
C          C       0.49554   0.32960   0.85099 
C          C       0.76846   0.86247   0.37037 
C          C       0.76846   0.13753   0.62963 
C          C       0.25392   0.89076   0.35320 
C          C       0.25392   0.10924   0.64680 
C          C       0.47318   0.52704   0.74903 
C          C       0.47318   0.47296   0.25097 
C          C       0.42684   0.49931   0.74911 
C          C       0.42684   0.50069   0.25089 
C          C       0.58824   0.51328   0.68960 
C          C       0.58824   0.48672   0.31040 
C          C       0.53352   0.54128   0.70630 
C          C       0.53352   0.45872   0.29370 
C          C       0.40416   0.53538   0.70465 
C          C       0.40416   0.46462   0.29535 
C          C       0.34775   0.56153   0.72452 
C          C       0.34775   0.43847   0.27548 
C          C       0.42987   0.49090   0.77800 
C          C       0.42987   0.50910   0.22200 
C          C       0.47978   0.50995   0.80784 
C          C       0.47978   0.49005   0.19216 
C          C       0.52660   0.53752   0.80777 
C          C       0.52660   0.46248   0.19223 
C          C       0.52312   0.54596   0.77889 
C          C       0.52312   0.45404   0.22111 
C          C       0.28140   0.56274   0.70681 
C          C       0.28140   0.43726   0.29319 
C          C       0.26978   0.53765   0.66886 
C          C       0.26978   0.46235   0.33114 
C          C       0.32555   0.51060   0.64957 
C          C       0.32555   0.48940   0.35043 
C          C       0.39171   0.50952   0.66717 
C          C       0.39171   0.49048   0.33283 
C          C       0.54350   0.57497   0.70591 
C          C       0.54350   0.42503   0.29409 
C          C       0.60432   0.57969   0.68716 
C          C       0.60432   0.42031   0.31284 
C          C       0.65633   0.55063   0.66805 
C          C       0.65633   0.44937   0.33195 
C          C       0.64884   0.51784   0.67059 
C          C       0.64884   0.48216   0.32941 
C          C       0.48097   0.50152   0.83677 
C          C       0.48097   0.49848   0.16323 
C          C       0.71098   0.55424   0.64565 
C          C       0.71098   0.44576   0.35435 
C          C       0.20560   0.54034   0.65061 
C          C       0.20560   0.45966   0.34939 
C          C       0.36052   0.14719   0.64702 
C          C       0.36052   0.85281   0.35298 
C          C       0.04821   0.00000   0.50000 
C          C       0.96863   0.00000   0.50000 
C          C       0.00815   0.50000   0.50000 
C          C       0.92862   0.50000   0.50000 
N          N       0.55673   0.65336   0.12846 
N          N       0.55673   0.34664   0.87154 
N          N       0.78375   0.89918   0.38627 
N          N       0.78375   0.10082   0.61373 
N          N       0.23658   0.89954   0.38819 
N          N       0.23658   0.10046   0.61181 
N          N       0.52988   0.51791   0.86512 
N          N       0.52988   0.48209   0.13488 
N          N       0.75201   0.52485   0.62126 
N          N       0.75201   0.47515   0.37874 
N          N       0.19372   0.51518   0.61480 
N          N       0.19372   0.48482   0.38520 
N          N       0.47030   0.53504   0.72081 
N          N       0.47030   0.46496   0.27919 
N          N       0.50913   0.80458   0.28414 
N          N       0.50913   0.19542   0.71586 
