data_crystal

_cell_length_a    24.43710
_cell_length_b    23.11070
_cell_length_c    11.22940
_cell_angle_alpha 90.00000
_cell_angle_beta  90.00000
_cell_angle_gamma 120.00000

_space_group_name_Hall 'P 1'
_space_group_name_H-M_alt  'P 1'

loop_
_symmetry_equiv_pos_as_xyz
'x,y,z' 

loop_
_atom_site_label
_atom_site_type_symbol
_atom_site_fract_x
_atom_site_fract_y
_atom_site_fract_z
N          N       0.38829   0.84794   0.18179 
C          C       0.35162   0.88149   0.19496 
C          C       0.35577   0.77553   0.17738 
C          C       0.45739   0.88756   0.19693 
C          C       0.31511   0.87210   0.29601 
C          C       0.27912   0.90432   0.30937 
C          C       0.27960   0.94700   0.22145 
C          C       0.31579   0.95567   0.12043 
C          C       0.35147   0.92323   0.10701 
C          C       0.39006   0.74123   0.19570 
C          C       0.35749   0.67182   0.20255 
C          C       0.29059   0.63463   0.18560 
C          C       0.25627   0.66776   0.16007 
C          C       0.28853   0.73741   0.15582 
C          C       0.48624   0.88424   0.30115 
C          C       0.55367   0.91908   0.31310 
C          C       0.59309   0.95942   0.22185 
C          C       0.56397   0.96435   0.11961 
C          C       0.49665   0.92880   0.10711 
N          N       0.24401   0.98193   0.22950 
N          N       0.25847   0.56398   0.20345 
N          N       0.66251   0.99224   0.22679 
C          C       0.20621   0.52042   0.15045 
C          C       0.17595   0.44919   0.18043 
C          C       0.13362   0.40086   0.10160 
C          C       0.10472   0.33312   0.12884 
C          C       0.11539   0.31286   0.23772 
C          C       0.15666   0.36129   0.31749 
C          C       0.18764   0.42884   0.28845 
C          C       0.07949   0.24107   0.27016 
C          C       0.11311   0.20536   0.28348 
C          C       0.07761   0.13507   0.29925 
C          C       0.00882   0.10114   0.30477 
C          C       0.97598   0.13794   0.29869 
C          C       0.01116   0.20784   0.28226 
C          C       0.18685   0.24332   0.27986 
C          C       0.11197   0.09613   0.30391 
C          C       0.97124   0.02553   0.31545 
C          C       0.90416   0.10356   0.30580 
C          C       0.97453   0.24601   0.27713 
C          C       0.87365   0.10903   0.40603 
C          C       0.80617   0.07922   0.41032 
C          C       0.76825   0.04290   0.31502 
C          C       0.79888   0.03647   0.21544 
C          C       0.86636   0.06703   0.21063 
C          C       0.10906   0.06003   0.40388 
C          C       0.14055   0.02281   0.40710 
C          C       0.17723   0.02270   0.31185 
C          C       0.18107   0.05977   0.21239 
C          C       0.14793   0.09527   0.20794 
C          C       0.69712   0.01173   0.32099 
C          C       0.21135   0.98425   0.31812 
H          H       0.31445   0.83948   0.36414 
H          H       0.25106   0.89496   0.38787 
H          H       0.31615   0.98771   0.05153 
H          H       0.37824   0.93012   0.02748 
H          H       0.44199   0.76740   0.20727 
H          H       0.38455   0.64681   0.22160 
H          H       0.20428   0.64013   0.14781 
H          H       0.26041   0.76131   0.13753 
H          H       0.45637   0.85235   0.37105 
H          H       0.57471   0.91247   0.39163 
H          H       0.59369   0.99551   0.04904 
H          H       0.47540   0.93254   0.02661 
H          H       0.18558   0.53562   0.08116 
H          H       0.12307   0.41558   0.01884 
H          H       0.07231   0.29644   0.06665 
H          H       0.16432   0.34682   0.40275 
H          H       0.21926   0.46518   0.35177 
H          H       0.20379   0.26796   0.19405 
H          H       0.20940   0.21239   0.29562 
H          H       0.20639   0.28138   0.34941 
H          H       0.97987   0.01013   0.40163 
H          H       0.98661   0.00305   0.24607 
H          H       0.91813   0.00291   0.30767 
H          H       0.94695   0.23852   0.35863 
H          H       0.94042   0.22807   0.20246 
H          H       0.00578   0.30061   0.26866 
H          H       0.90234   0.13769   0.47971 
H          H       0.78358   0.08545   0.48727 
H          H       0.77067   0.00738   0.14177 
H          H       0.88930   0.06144   0.13361 
H          H       0.08194   0.06030   0.47912 
H          H       0.13630   0.99409   0.48415 
H          H       0.21000   0.06172   0.13836 
H          H       0.15195   0.12402   0.13109 
H          H       0.67453   0.00735   0.40464 
H          H       0.20869   0.95862   0.39820 
N          N       0.38829   0.84794   0.68179 
C          C       0.35162   0.88149   0.69496 
C          C       0.35577   0.77553   0.67738 
C          C       0.45739   0.88756   0.69693 
C          C       0.31511   0.87210   0.79602 
C          C       0.27912   0.90432   0.80937 
C          C       0.27960   0.94700   0.72146 
C          C       0.31579   0.95567   0.62043 
C          C       0.35147   0.92323   0.60701 
C          C       0.39006   0.74123   0.69570 
C          C       0.35749   0.67182   0.70255 
C          C       0.29059   0.63463   0.68561 
C          C       0.25627   0.66776   0.66006 
C          C       0.28853   0.73741   0.65582 
C          C       0.48624   0.88424   0.80115 
C          C       0.55367   0.91908   0.81310 
C          C       0.59309   0.95942   0.72185 
C          C       0.56397   0.96435   0.61961 
C          C       0.49665   0.92880   0.60711 
N          N       0.24401   0.98193   0.72950 
N          N       0.25847   0.56398   0.70345 
N          N       0.66251   0.99224   0.72679 
C          C       0.20621   0.52042   0.65045 
C          C       0.17595   0.44919   0.68044 
C          C       0.13362   0.40086   0.60160 
C          C       0.10472   0.33312   0.62884 
C          C       0.11539   0.31286   0.73772 
C          C       0.15666   0.36129   0.81749 
C          C       0.18764   0.42884   0.78844 
C          C       0.07949   0.24107   0.77016 
C          C       0.11311   0.20536   0.78348 
C          C       0.07761   0.13507   0.79926 
C          C       0.00882   0.10114   0.80477 
C          C       0.97598   0.13794   0.79869 
C          C       0.01116   0.20784   0.78226 
C          C       0.18685   0.24332   0.77986 
C          C       0.11197   0.09613   0.80391 
C          C       0.97124   0.02553   0.81545 
C          C       0.90416   0.10356   0.80580 
C          C       0.97453   0.24601   0.77712 
C          C       0.87365   0.10903   0.90604 
C          C       0.80617   0.07922   0.91032 
C          C       0.76825   0.04290   0.81502 
C          C       0.79888   0.03647   0.71544 
C          C       0.86636   0.06703   0.71063 
C          C       0.10906   0.06003   0.90388 
C          C       0.14055   0.02281   0.90711 
C          C       0.17723   0.02270   0.81185 
C          C       0.18107   0.05977   0.71240 
C          C       0.14793   0.09527   0.70794 
C          C       0.69712   0.01173   0.82099 
C          C       0.21135   0.98425   0.81812 
H          H       0.31445   0.83948   0.86414 
H          H       0.25106   0.89496   0.88786 
H          H       0.31615   0.98771   0.55153 
H          H       0.37824   0.93012   0.52748 
H          H       0.44199   0.76740   0.70727 
H          H       0.38455   0.64681   0.72160 
H          H       0.20428   0.64013   0.64781 
H          H       0.26041   0.76131   0.63753 
H          H       0.45637   0.85235   0.87104 
H          H       0.57471   0.91247   0.89163 
H          H       0.59369   0.99551   0.54905 
H          H       0.47540   0.93254   0.52660 
H          H       0.18558   0.53562   0.58116 
H          H       0.12307   0.41558   0.51883 
H          H       0.07231   0.29644   0.56665 
H          H       0.16432   0.34682   0.90275 
H          H       0.21926   0.46518   0.85177 
H          H       0.20379   0.26796   0.69405 
H          H       0.20940   0.21239   0.79562 
H          H       0.20639   0.28138   0.84941 
H          H       0.97987   0.01013   0.90163 
H          H       0.98661   0.00305   0.74608 
H          H       0.91813   0.00291   0.80766 
H          H       0.94695   0.23852   0.85864 
H          H       0.94042   0.22807   0.70246 
H          H       0.00578   0.30061   0.76866 
H          H       0.90234   0.13769   0.97971 
H          H       0.78358   0.08545   0.98726 
H          H       0.77067   0.00738   0.64177 
H          H       0.88930   0.06144   0.63361 
H          H       0.08194   0.06030   0.97912 
H          H       0.13630   0.99409   0.98415 
H          H       0.21000   0.06172   0.63836 
H          H       0.15195   0.12402   0.63109 
H          H       0.67453   0.00735   0.90463 
H          H       0.20869   0.95862   0.89820 
