data_crystal

_cell_length_a    25.92550
_cell_length_b    25.34670
_cell_length_c    9.65780
_cell_angle_alpha 90.00000
_cell_angle_beta  90.00000
_cell_angle_gamma 120.00000

_space_group_name_Hall 'P 1'
_space_group_name_H-M_alt  'P 1'

loop_
_symmetry_equiv_pos_as_xyz
'x,y,z' 

loop_
_atom_site_label
_atom_site_type_symbol
_atom_site_fract_x
_atom_site_fract_y
_atom_site_fract_z
C          C       0.21942   0.52565   0.11023 
C          C       0.28219   0.56005   0.10214 
C          C       0.31051   0.62368   0.10499 
C          C       0.27703   0.65302   0.11844 
C          C       0.21448   0.61802   0.12396 
C          C       0.18533   0.55445   0.12425 
C          C       0.31868   0.52999   0.10888 
C          C       0.30729   0.71951   0.14183 
C          C       0.12027   0.51915   0.15487 
C          C       0.08212   0.46525   0.08200 
C          C       0.02061   0.43329   0.11159 
C          C       0.99668   0.45483   0.21566 
C          C       0.03499   0.50781   0.28941 
C          C       0.09601   0.53959   0.26003 
C          C       0.30499   0.47900   0.02540 
C          C       0.33902   0.45018   0.03735 
C          C       0.38707   0.47173   0.13257 
C          C       0.39999   0.52231   0.21751 
C          C       0.36647   0.55119   0.20492 
C          C       0.28535   0.74335   0.24477 
C          C       0.31486   0.80543   0.27281 
C          C       0.36766   0.84513   0.19944 
C          C       0.38891   0.82158   0.09500 
C          C       0.35928   0.75937   0.06664 
N          N       0.93435   0.42510   0.25187 
N          N       0.41859   0.43872   0.14911 
N          N       0.40101   0.90921   0.22697 
C          C       0.47113   0.46073   0.20705 
C          C       0.49669   0.42203   0.24263 
C          C       0.53896   0.44077   0.35118 
C          C       0.56067   0.40355   0.39810 
C          C       0.54139   0.34617   0.33647 
C          C       0.50310   0.33061   0.21749 
C          C       0.47904   0.36671   0.17491 
C          C       0.56112   0.30246   0.38861 
C          C       0.52097   0.23859   0.38697 
C          C       0.54403   0.19809   0.39304 
C          C       0.60704   0.22198   0.39789 
C          C       0.64631   0.28550   0.39747 
C          C       0.62196   0.32346   0.42275 
C          C       0.45368   0.21346   0.38637 
C          C       0.50351   0.13104   0.37711 
C          C       0.63265   0.17999   0.41618 
C          C       0.71026   0.31148   0.34780 
C          C       0.66528   0.39025   0.43971 
C          C       0.51358   0.10036   0.26676 
C          C       0.47915   0.03752   0.25360 
C          C       0.43130   0.00400   0.34627 
C          C       0.41997   0.03438   0.45490 
C          C       0.45655   0.09703   0.47215 
C          C       0.75941   0.36294   0.40840 
C          C       0.81749   0.38425   0.35875 
C          C       0.82860   0.35523   0.24637 
C          C       0.78027   0.30486   0.18342 
C          C       0.72196   0.28434   0.23128 
C          C       0.39327   0.93770   0.33178 
C          C       0.89004   0.37794   0.19307 
H          H       0.19756   0.47668   0.11577 
H          H       0.35893   0.65025   0.10358 
H          H       0.18830   0.64042   0.13234 
H          H       0.09969   0.44856   0.00040 
H          H       0.99256   0.39233   0.05271 
H          H       0.01734   0.52446   0.37097 
H          H       0.12442   0.57992   0.32118 
H          H       0.26824   0.46170   0.45070 
H          H       0.32779   0.41083   0.47262 
H          H       0.43431   0.53865   0.29802 
H          H       0.37665   0.58902   0.27429 
H          H       0.24606   0.71376   0.30662 
H          H       0.29606   0.82140   0.35255 
H          H       0.42899   0.85161   0.03610 
H          H       0.37683   0.74249   0.48542 
H          H       0.49567   0.50747   0.24129 
H          H       0.55353   0.48358   0.40458 
H          H       0.59045   0.42072   0.48640 
H          H       0.49023   0.28926   0.15951 
H          H       0.44759   0.35190   0.08772 
H          H       0.43329   0.18756   0.48406 
H          H       0.43318   0.18430   0.29199 
H          H       0.44051   0.24858   0.38949 
H          H       0.63354   0.15904   0.31416 
H          H       0.60600   0.14365   0.49344 
H          H       0.67912   0.20425   0.45724 
H          H       0.68056   0.41262   0.33505 
H          H       0.70369   0.39832   0.00691 
H          H       0.64559   0.41204   0.00405 
H          H       0.54805   0.12535   0.18948 
H          H       0.48930   0.01548   0.16875 
H          H       0.38385   0.00938   0.02925 
H          H       0.44913   0.11813   0.06299 
H          H       0.75537   0.38690   0.49691 
H          H       0.85384   0.42343   0.40988 
H          H       0.78741   0.28216   0.09490 
H          H       0.68549   0.24703   0.17638 
H          H       0.35954   0.91363   0.41154 
H          H       0.89704   0.35554   0.10401 
C          C       0.21942   0.52565   0.61023 
C          C       0.28219   0.56005   0.60213 
C          C       0.31051   0.62368   0.60499 
C          C       0.27703   0.65302   0.61844 
C          C       0.21448   0.61802   0.62396 
C          C       0.18533   0.55445   0.62425 
C          C       0.31868   0.52999   0.60889 
C          C       0.30729   0.71951   0.64183 
C          C       0.12027   0.51915   0.65487 
C          C       0.08212   0.46525   0.58200 
C          C       0.02061   0.43329   0.61159 
C          C       0.99668   0.45483   0.71565 
C          C       0.03499   0.50781   0.78941 
C          C       0.09601   0.53959   0.76002 
C          C       0.30499   0.47900   0.52540 
C          C       0.33902   0.45018   0.53735 
C          C       0.38707   0.47173   0.63257 
C          C       0.39999   0.52231   0.71751 
C          C       0.36647   0.55119   0.70492 
C          C       0.28535   0.74335   0.74477 
C          C       0.31486   0.80543   0.77281 
C          C       0.36766   0.84513   0.69944 
C          C       0.38891   0.82158   0.59500 
C          C       0.35928   0.75937   0.56664 
N          N       0.93435   0.42510   0.75187 
N          N       0.41859   0.43872   0.64911 
N          N       0.40101   0.90921   0.72696 
C          C       0.47113   0.46073   0.70705 
C          C       0.49669   0.42203   0.74263 
C          C       0.53896   0.44077   0.85119 
C          C       0.56067   0.40355   0.89811 
C          C       0.54139   0.34617   0.83647 
C          C       0.50310   0.33061   0.71749 
C          C       0.47904   0.36671   0.67491 
C          C       0.56112   0.30246   0.88861 
C          C       0.52097   0.23859   0.88697 
C          C       0.54403   0.19809   0.89304 
C          C       0.60704   0.22198   0.89789 
C          C       0.64631   0.28550   0.89746 
C          C       0.62196   0.32346   0.92275 
C          C       0.45368   0.21346   0.88637 
C          C       0.50351   0.13104   0.87711 
C          C       0.63265   0.17999   0.91618 
C          C       0.71026   0.31148   0.84780 
C          C       0.66528   0.39025   0.93971 
C          C       0.51358   0.10036   0.76676 
C          C       0.47915   0.03752   0.75360 
C          C       0.43130   0.00400   0.84627 
C          C       0.41997   0.03438   0.95490 
C          C       0.45655   0.09703   0.97215 
C          C       0.75941   0.36294   0.90841 
C          C       0.81749   0.38425   0.85875 
C          C       0.82860   0.35523   0.74638 
C          C       0.78027   0.30486   0.68342 
C          C       0.72196   0.28434   0.73128 
C          C       0.39327   0.93770   0.83178 
C          C       0.89004   0.37794   0.69307 
H          H       0.19756   0.47668   0.61577 
H          H       0.35893   0.65025   0.60357 
H          H       0.18830   0.64042   0.63234 
H          H       0.09969   0.44856   0.50040 
H          H       0.99256   0.39233   0.55271 
H          H       0.01734   0.52446   0.87097 
H          H       0.12442   0.57992   0.82118 
H          H       0.26824   0.46170   0.95070 
H          H       0.32779   0.41083   0.97262 
H          H       0.43431   0.53865   0.79802 
H          H       0.37665   0.58902   0.77429 
H          H       0.24606   0.71376   0.80662 
H          H       0.29606   0.82140   0.85255 
H          H       0.42899   0.85161   0.53610 
H          H       0.37683   0.74249   0.98542 
H          H       0.49567   0.50747   0.74129 
H          H       0.55353   0.48358   0.90458 
H          H       0.59045   0.42072   0.98640 
H          H       0.49023   0.28926   0.65951 
H          H       0.44759   0.35190   0.58771 
H          H       0.43329   0.18756   0.98406 
H          H       0.43318   0.18430   0.79199 
H          H       0.44051   0.24858   0.88949 
H          H       0.63354   0.15904   0.81416 
H          H       0.60600   0.14365   0.99343 
H          H       0.67912   0.20425   0.95724 
H          H       0.68056   0.41262   0.83505 
H          H       0.70369   0.39832   0.50692 
H          H       0.64559   0.41204   0.50406 
H          H       0.54805   0.12535   0.68948 
H          H       0.48930   0.01548   0.66875 
H          H       0.38385   0.00938   0.52926 
H          H       0.44913   0.11813   0.56299 
H          H       0.75537   0.38690   0.99691 
H          H       0.85384   0.42343   0.90988 
H          H       0.78741   0.28216   0.59490 
H          H       0.68549   0.24703   0.67638 
H          H       0.35954   0.91363   0.91154 
H          H       0.89704   0.35554   0.60401 
