data_crystal

_cell_length_a    30.48000
_cell_length_b    30.48000
_cell_length_c    6.78000
_cell_angle_alpha 90.00000
_cell_angle_beta  90.00000
_cell_angle_gamma 120.00000

_space_group_name_Hall 'P 1'
_space_group_name_H-M_alt  'P 1'

loop_
_symmetry_equiv_pos_as_xyz
'x,y,z' 

loop_
_atom_site_label
_atom_site_type_symbol
_atom_site_fract_x
_atom_site_fract_y
_atom_site_fract_z
O          O       0.29560   0.56120   0.00000 
O          O       0.43880   0.73440   0.00000 
O          O       0.26560   0.70440   0.00000 
O          O       0.70440   0.43880   0.00000 
O          O       0.56120   0.26560   0.00000 
O          O       0.73440   0.29560   0.00000 
N          N       0.38720   0.57810   0.00000 
N          N       0.42190   0.80910   0.00000 
N          N       0.19090   0.61280   0.00000 
N          N       0.61280   0.42190   0.00000 
N          N       0.57810   0.19090   0.00000 
N          N       0.80910   0.38720   0.00000 
C          C       0.31350   0.61070   0.00000 
C          C       0.38930   0.70280   0.00000 
C          C       0.29720   0.68650   0.00000 
C          C       0.68650   0.38930   0.00000 
C          C       0.61070   0.29720   0.00000 
C          C       0.70280   0.31350   0.00000 
C          C       0.40390   0.62980   0.00000 
C          C       0.37020   0.77410   0.00000 
C          C       0.22590   0.59610   0.00000 
C          C       0.59610   0.37020   0.00000 
C          C       0.62980   0.22590   0.00000 
C          C       0.77410   0.40390   0.00000 
C          C       0.41950   0.55690   0.00000 
C          C       0.44310   0.86260   0.00000 
C          C       0.13740   0.58050   0.00000 
C          C       0.58050   0.44310   0.00000 
C          C       0.55690   0.13740   0.00000 
C          C       0.86260   0.41950   0.00000 
C          C       0.47390   0.58830   0.00000 
C          C       0.41170   0.88560   0.00000 
C          C       0.11440   0.52610   0.00000 
C          C       0.52610   0.41170   0.00000 
C          C       0.58830   0.11440   0.00000 
C          C       0.88560   0.47390   0.00000 
C          C       0.50460   0.56560   0.00000 
C          C       0.43440   0.93900   0.00000 
C          C       0.06100   0.49540   0.00000 
C          C       0.49540   0.43440   0.00000 
C          C       0.56560   0.06100   0.00000 
C          C       0.93900   0.50460   0.00000 
C          C       0.48290   0.51120   0.00000 
C          C       0.48880   0.97170   0.00000 
C          C       0.02830   0.51710   0.00000 
C          C       0.51710   0.48880   0.00000 
C          C       0.51120   0.02830   0.00000 
C          C       0.97170   0.48290   0.00000 
C          C       0.42810   0.48030   0.00000 
C          C       0.51970   0.94780   0.00000 
C          C       0.05220   0.57190   0.00000 
C          C       0.57190   0.51970   0.00000 
C          C       0.48030   0.05220   0.00000 
C          C       0.94780   0.42810   0.00000 
C          C       0.39680   0.50270   0.00000 
C          C       0.49730   0.89410   0.00000 
C          C       0.10590   0.60320   0.00000 
C          C       0.60320   0.49730   0.00000 
C          C       0.50270   0.10590   0.00000 
C          C       0.89410   0.39680   0.00000 
C          C       0.36840   0.64720   0.00000 
C          C       0.35280   0.72120   0.00000 
C          C       0.27880   0.63160   0.00000 
C          C       0.63160   0.35280   0.00000 
C          C       0.64720   0.27880   0.00000 
C          C       0.72120   0.36840   0.00000 
Cl         Cl      0.33219   0.46441   0.00000 
Cl         Cl      0.53559   0.86778   0.00000 
Cl         Cl      0.13222   0.66781   0.00000 
Cl         Cl      0.66781   0.53559   0.00000 
Cl         Cl      0.46441   0.13222   0.00000 
Cl         Cl      0.86778   0.33219   0.00000 
H          H       0.95993   0.53987   0.00000 
H          H       0.97135   0.41137   0.00000 
H          H       0.87209   0.49500   0.00000 
H          H       0.79678   0.45004   0.00000 
H          H       0.65706   0.21640   0.00000 
H          H       0.63078   0.14245   0.00000 
H          H       0.58376   0.03914   0.00000 
H          H       0.44663   0.03343   0.00000 
H          H       0.50603   0.37745   0.00000 
H          H       0.46216   0.41882   0.00000 
H          H       0.58721   0.55687   0.00000 
H          H       0.56639   0.34967   0.00000 
H          H       0.54497   0.59410   0.00000 
H          H       0.48173   0.62476   0.00000 
H          H       0.41009   0.44332   0.00000 
H          H       0.43930   0.66469   0.00000 
H          H       0.20659   0.55912   0.00000 
H          H       0.13167   0.50875   0.00000 
H          H       0.03444   0.46065   0.00000 
H          H       0.02436   0.58349   0.00000 
H          H       0.37204   0.86265   0.00000 
H          H       0.42076   0.96202   0.00000 
H          H       0.55612   0.97726   0.00000 
H          H       0.35325   0.79610   0.00000 
O          O       0.29560   0.56120   0.50000 
O          O       0.43880   0.73440   0.50000 
O          O       0.26560   0.70440   0.50000 
O          O       0.70440   0.43880   0.50000 
O          O       0.56120   0.26560   0.50000 
O          O       0.73440   0.29560   0.50000 
N          N       0.38720   0.57810   0.50000 
N          N       0.42190   0.80910   0.50000 
N          N       0.19090   0.61280   0.50000 
N          N       0.61280   0.42190   0.50000 
N          N       0.57810   0.19090   0.50000 
N          N       0.80910   0.38720   0.50000 
C          C       0.31350   0.61070   0.50000 
C          C       0.38930   0.70280   0.50000 
C          C       0.29720   0.68650   0.50000 
C          C       0.68650   0.38930   0.50000 
C          C       0.61070   0.29720   0.50000 
C          C       0.70280   0.31350   0.50000 
C          C       0.40390   0.62980   0.50000 
C          C       0.37020   0.77410   0.50000 
C          C       0.22590   0.59610   0.50000 
C          C       0.59610   0.37020   0.50000 
C          C       0.62980   0.22590   0.50000 
C          C       0.77410   0.40390   0.50000 
C          C       0.41950   0.55690   0.50000 
C          C       0.44310   0.86260   0.50000 
C          C       0.13740   0.58050   0.50000 
C          C       0.58050   0.44310   0.50000 
C          C       0.55690   0.13740   0.50000 
C          C       0.86260   0.41950   0.50000 
C          C       0.47390   0.58830   0.50000 
C          C       0.41170   0.88560   0.50000 
C          C       0.11440   0.52610   0.50000 
C          C       0.52610   0.41170   0.50000 
C          C       0.58830   0.11440   0.50000 
C          C       0.88560   0.47390   0.50000 
C          C       0.50460   0.56560   0.50000 
C          C       0.43440   0.93900   0.50000 
C          C       0.06100   0.49540   0.50000 
C          C       0.49540   0.43440   0.50000 
C          C       0.56560   0.06100   0.50000 
C          C       0.93900   0.50460   0.50000 
C          C       0.48290   0.51120   0.50000 
C          C       0.48880   0.97170   0.50000 
C          C       0.02830   0.51710   0.50000 
C          C       0.51710   0.48880   0.50000 
C          C       0.51120   0.02830   0.50000 
C          C       0.97170   0.48290   0.50000 
C          C       0.42810   0.48030   0.50000 
C          C       0.51970   0.94780   0.50000 
C          C       0.05220   0.57190   0.50000 
C          C       0.57190   0.51970   0.50000 
C          C       0.48030   0.05220   0.50000 
C          C       0.94780   0.42810   0.50000 
C          C       0.39680   0.50270   0.50000 
C          C       0.49730   0.89410   0.50000 
C          C       0.10590   0.60320   0.50000 
C          C       0.60320   0.49730   0.50000 
C          C       0.50270   0.10590   0.50000 
C          C       0.89410   0.39680   0.50000 
C          C       0.36840   0.64720   0.50000 
C          C       0.35280   0.72120   0.50000 
C          C       0.27880   0.63160   0.50000 
C          C       0.63160   0.35280   0.50000 
C          C       0.64720   0.27880   0.50000 
C          C       0.72120   0.36840   0.50000 
Cl         Cl      0.33219   0.46441   0.50000 
Cl         Cl      0.53559   0.86778   0.50000 
Cl         Cl      0.13222   0.66781   0.50000 
Cl         Cl      0.66781   0.53559   0.50000 
Cl         Cl      0.46441   0.13222   0.50000 
Cl         Cl      0.86778   0.33219   0.50000 
H          H       0.95993   0.53987   0.50000 
H          H       0.97135   0.41137   0.50000 
H          H       0.87209   0.49500   0.50000 
H          H       0.79678   0.45004   0.50000 
H          H       0.65706   0.21640   0.50000 
H          H       0.63078   0.14245   0.50000 
H          H       0.58376   0.03914   0.50000 
H          H       0.44663   0.03343   0.50000 
H          H       0.50603   0.37745   0.50000 
H          H       0.46216   0.41882   0.50000 
H          H       0.58721   0.55687   0.50000 
H          H       0.56639   0.34967   0.50000 
H          H       0.54497   0.59410   0.50000 
H          H       0.48173   0.62476   0.50000 
H          H       0.41009   0.44332   0.50000 
H          H       0.43930   0.66469   0.50000 
H          H       0.20659   0.55912   0.50000 
H          H       0.13167   0.50875   0.50000 
H          H       0.03444   0.46065   0.50000 
H          H       0.02436   0.58349   0.50000 
H          H       0.37204   0.86265   0.50000 
H          H       0.42076   0.96202   0.50000 
H          H       0.55612   0.97726   0.50000 
H          H       0.35325   0.79610   0.50000 
