data_crystal

_cell_length_a    24.47720
_cell_length_b    24.47720
_cell_length_c    7.00240
_cell_angle_alpha 90.00000
_cell_angle_beta  90.00000
_cell_angle_gamma 120.00000

_space_group_name_Hall 'P 1'
_space_group_name_H-M_alt  'P 1'

loop_
_symmetry_equiv_pos_as_xyz
'x,y,z' 

loop_
_atom_site_label
_atom_site_type_symbol
_atom_site_fract_x
_atom_site_fract_y
_atom_site_fract_z
S          S       0.43109   0.47067   0.25000 
S          S       0.52933   0.96042   0.25000 
S          S       0.03958   0.56891   0.25000 
S          S       0.56891   0.52933   0.75000 
S          S       0.47067   0.03958   0.75000 
S          S       0.96042   0.43109   0.75000 
N          N       0.30102   0.60528   0.75000 
N          N       0.39472   0.69574   0.75000 
N          N       0.30426   0.69898   0.75000 
N          N       0.69898   0.39472   0.25000 
N          N       0.60528   0.30426   0.25000 
N          N       0.69574   0.30102   0.25000 
C          C       0.36264   0.63411   0.75000 
C          C       0.36589   0.72853   0.75000 
C          C       0.27147   0.63736   0.75000 
C          C       0.63736   0.36589   0.25000 
C          C       0.63411   0.27147   0.25000 
C          C       0.72853   0.36264   0.25000 
C          C       0.39445   0.59870   0.75000 
C          C       0.40130   0.79575   0.75000 
C          C       0.20425   0.60555   0.75000 
C          C       0.60555   0.40130   0.25000 
C          C       0.59870   0.20425   0.25000 
C          C       0.79575   0.39445   0.25000 
C          C       0.36132   0.53496   0.75000 
C          C       0.46504   0.82636   0.75000 
C          C       0.17364   0.63868   0.75000 
C          C       0.63868   0.46504   0.25000 
C          C       0.53496   0.17364   0.25000 
C          C       0.82636   0.36132   0.25000 
C          C       0.39120   0.50151   0.75000 
C          C       0.49849   0.88969   0.75000 
C          C       0.11031   0.60880   0.75000 
C          C       0.60880   0.49849   0.25000 
C          C       0.50151   0.11031   0.25000 
C          C       0.88969   0.39120   0.25000 
C          C       0.45497   0.53092   0.75000 
C          C       0.46908   0.92405   0.75000 
C          C       0.07595   0.54503   0.75000 
C          C       0.54503   0.46908   0.25000 
C          C       0.53092   0.07595   0.25000 
C          C       0.92405   0.45497   0.25000 
C          C       0.48812   0.59467   0.75000 
C          C       0.40533   0.89345   0.75000 
C          C       0.10655   0.51188   0.75000 
C          C       0.51188   0.40533   0.25000 
C          C       0.59467   0.10655   0.25000 
C          C       0.89345   0.48812   0.25000 
C          C       0.45821   0.62817   0.75000 
C          C       0.37183   0.83004   0.75000 
C          C       0.16996   0.54179   0.75000 
C          C       0.54179   0.37183   0.25000 
C          C       0.62817   0.16996   0.25000 
C          C       0.83004   0.45821   0.25000 
C          C       0.48626   0.49496   0.75000 
C          C       0.50504   0.99130   0.75000 
C          C       0.00870   0.51374   0.75000 
C          C       0.51374   0.50504   0.25000 
C          C       0.49496   0.00870   0.25000 
C          C       0.99130   0.48626   0.25000 
N          N       0.45574   0.43606   0.75000 
N          N       0.56394   0.01968   0.75000 
N          N       0.98032   0.54426   0.75000 
N          N       0.54426   0.56394   0.25000 
N          N       0.43606   0.98032   0.25000 
N          N       0.01968   0.45574   0.25000 
C          C       0.49422   0.41080   0.75000 
C          C       0.58920   0.08342   0.75000 
C          C       0.91658   0.50578   0.75000 
C          C       0.50578   0.58920   0.25000 
C          C       0.41080   0.91658   0.25000 
C          C       0.08342   0.49422   0.25000 
C          C       0.55501   0.45291   0.75000 
C          C       0.54709   0.10210   0.75000 
C          C       0.89790   0.44499   0.75000 
C          C       0.44499   0.54709   0.25000 
C          C       0.45291   0.89790   0.25000 
C          C       0.10210   0.55501   0.25000 
C          C       0.59873   0.43515   0.75000 
C          C       0.56485   0.16358   0.75000 
C          C       0.83642   0.40127   0.75000 
C          C       0.40127   0.56485   0.25000 
C          C       0.43515   0.83642   0.25000 
C          C       0.16358   0.59873   0.25000 
C          C       0.57980   0.37260   0.75000 
C          C       0.62740   0.20720   0.75000 
C          C       0.79280   0.42020   0.75000 
C          C       0.42020   0.62740   0.25000 
C          C       0.37260   0.79280   0.25000 
C          C       0.20720   0.57980   0.25000 
C          C       0.51692   0.32967   0.75000 
C          C       0.67033   0.18725   0.75000 
C          C       0.81275   0.48308   0.75000 
C          C       0.48308   0.67033   0.25000 
C          C       0.32967   0.81275   0.25000 
C          C       0.18725   0.51692   0.25000 
C          C       0.47395   0.34882   0.75000 
C          C       0.65118   0.12513   0.75000 
C          C       0.87487   0.52605   0.75000 
C          C       0.52605   0.65118   0.25000 
C          C       0.34882   0.87487   0.25000 
C          C       0.12513   0.47395   0.25000 
C          C       0.62503   0.35216   0.75000 
C          C       0.64784   0.27287   0.75000 
C          C       0.72713   0.37497   0.75000 
C          C       0.37497   0.64784   0.25000 
C          C       0.35216   0.72713   0.25000 
C          C       0.27287   0.62503   0.25000 
N          N       0.68535   0.39334   0.75000 
N          N       0.60666   0.29201   0.75000 
N          N       0.70799   0.31465   0.75000 
N          N       0.31465   0.60666   0.25000 
N          N       0.39334   0.70799   0.25000 
N          N       0.29201   0.68535   0.25000 
H          H       0.31217   0.51071   0.75000 
H          H       0.48929   0.80146   0.75000 
H          H       0.19854   0.68783   0.75000 
H          H       0.68783   0.48929   0.25000 
H          H       0.51071   0.19854   0.25000 
H          H       0.80146   0.31217   0.25000 
H          H       0.36416   0.45245   0.75000 
H          H       0.54755   0.91171   0.75000 
H          H       0.08829   0.63584   0.75000 
H          H       0.63584   0.54755   0.25000 
H          H       0.45245   0.08829   0.25000 
H          H       0.91171   0.36416   0.25000 
H          H       0.53721   0.61899   0.75000 
H          H       0.38101   0.91822   0.75000 
H          H       0.08178   0.46279   0.75000 
H          H       0.46279   0.38101   0.25000 
H          H       0.61899   0.08178   0.25000 
H          H       0.91822   0.53721   0.25000 
H          H       0.48519   0.67724   0.75000 
H          H       0.32276   0.80795   0.75000 
H          H       0.19205   0.51481   0.75000 
H          H       0.51481   0.32276   0.25000 
H          H       0.67724   0.19205   0.25000 
H          H       0.80795   0.48519   0.25000 
H          H       0.64634   0.46947   0.75000 
H          H       0.53053   0.17687   0.75000 
H          H       0.82313   0.35366   0.75000 
H          H       0.35366   0.53053   0.25000 
H          H       0.46947   0.82313   0.25000 
H          H       0.17687   0.64634   0.25000 
H          H       0.50097   0.28144   0.75000 
H          H       0.71856   0.21953   0.75000 
H          H       0.78047   0.49903   0.75000 
H          H       0.49903   0.71856   0.25000 
H          H       0.28144   0.78047   0.25000 
H          H       0.21953   0.50097   0.25000 
H          H       0.42588   0.31599   0.75000 
H          H       0.68401   0.10989   0.75000 
H          H       0.89011   0.57412   0.75000 
H          H       0.57412   0.68401   0.25000 
H          H       0.31599   0.89011   0.25000 
H          H       0.10989   0.42588   0.25000 
