data_crystal

_cell_length_a    25.99460
_cell_length_b    25.99460
_cell_length_c    6.83490
_cell_angle_alpha 90.00000
_cell_angle_beta  90.00000
_cell_angle_gamma 120.00000

_space_group_name_Hall 'P 1'
_space_group_name_H-M_alt  'P 1'

loop_
_symmetry_equiv_pos_as_xyz
'x,y,z' 

loop_
_atom_site_label
_atom_site_type_symbol
_atom_site_fract_x
_atom_site_fract_y
_atom_site_fract_z
N          N       0.68934   0.39287   0.75000 
N          N       0.60713   0.29647   0.75000 
N          N       0.70353   0.31066   0.75000 
N          N       0.31066   0.60713   0.25000 
N          N       0.39287   0.70353   0.25000 
N          N       0.29647   0.68934   0.25000 
C          C       0.62952   0.35619   0.75000 
C          C       0.64381   0.27333   0.75000 
C          C       0.72667   0.37048   0.75000 
C          C       0.37048   0.64381   0.25000 
C          C       0.35619   0.72667   0.25000 
C          C       0.27333   0.62952   0.25000 
C          C       0.58916   0.38102   0.75000 
C          C       0.61898   0.20814   0.75000 
C          C       0.79186   0.41084   0.75000 
C          C       0.41084   0.61898   0.25000 
C          C       0.38102   0.79186   0.25000 
C          C       0.20814   0.58916   0.25000 
C          C       0.61215   0.44282   0.75000 
C          C       0.55718   0.16933   0.75000 
C          C       0.83067   0.38785   0.75000 
C          C       0.38785   0.55718   0.25000 
C          C       0.44282   0.83067   0.25000 
C          C       0.16933   0.61215   0.25000 
C          C       0.57410   0.46624   0.75000 
C          C       0.53376   0.10786   0.75000 
C          C       0.89214   0.42590   0.75000 
C          C       0.42590   0.53376   0.25000 
C          C       0.46624   0.89214   0.25000 
C          C       0.10786   0.57410   0.25000 
C          C       0.51221   0.42832   0.75000 
C          C       0.57168   0.08389   0.75000 
C          C       0.91611   0.48779   0.75000 
C          C       0.48779   0.57168   0.25000 
C          C       0.42832   0.91611   0.25000 
C          C       0.08389   0.51221   0.25000 
C          C       0.48918   0.36669   0.75000 
C          C       0.63331   0.12249   0.75000 
C          C       0.87751   0.51082   0.75000 
C          C       0.51082   0.63331   0.25000 
C          C       0.36669   0.87751   0.25000 
C          C       0.12249   0.48918   0.25000 
C          C       0.52720   0.34322   0.75000 
C          C       0.65678   0.18398   0.75000 
C          C       0.81602   0.47280   0.75000 
C          C       0.47280   0.65678   0.25000 
C          C       0.34322   0.81602   0.25000 
C          C       0.18398   0.52720   0.25000 
C          C       0.47109   0.45199   0.75000 
C          C       0.54801   0.01910   0.75000 
C          C       0.98090   0.52891   0.75000 
C          C       0.52891   0.54801   0.25000 
C          C       0.45199   0.98090   0.25000 
C          C       0.01910   0.47109   0.25000 
N          N       0.49134   0.50893   0.75000 
N          N       0.49107   0.98241   0.75000 
N          N       0.01759   0.50866   0.75000 
N          N       0.50866   0.49107   0.25000 
N          N       0.50893   0.01759   0.25000 
N          N       0.98241   0.49134   0.25000 
C          C       0.45724   0.53867   0.75000 
C          C       0.46133   0.91857   0.75000 
C          C       0.08143   0.54276   0.75000 
C          C       0.54276   0.46133   0.25000 
C          C       0.53867   0.08143   0.25000 
C          C       0.91857   0.45724   0.25000 
C          C       0.39466   0.50829   0.75000 
C          C       0.49171   0.88637   0.75000 
C          C       0.11363   0.60534   0.75000 
C          C       0.60534   0.49171   0.25000 
C          C       0.50829   0.11363   0.25000 
C          C       0.88637   0.39466   0.25000 
C          C       0.36421   0.53992   0.75000 
C          C       0.46008   0.82429   0.75000 
C          C       0.17571   0.63579   0.75000 
C          C       0.63579   0.46008   0.25000 
C          C       0.53992   0.17571   0.25000 
C          C       0.82429   0.36421   0.25000 
C          C       0.39540   0.60236   0.75000 
C          C       0.39764   0.79304   0.75000 
C          C       0.20696   0.60460   0.75000 
C          C       0.60460   0.39764   0.25000 
C          C       0.60236   0.20696   0.25000 
C          C       0.79304   0.39540   0.25000 
C          C       0.45782   0.63245   0.75000 
C          C       0.36755   0.82537   0.75000 
C          C       0.17463   0.54218   0.75000 
C          C       0.54218   0.36755   0.25000 
C          C       0.63245   0.17463   0.25000 
C          C       0.82537   0.45782   0.25000 
C          C       0.48820   0.60081   0.75000 
C          C       0.39919   0.88739   0.75000 
C          C       0.11261   0.51180   0.75000 
C          C       0.51180   0.39919   0.25000 
C          C       0.60081   0.11261   0.25000 
C          C       0.88739   0.48820   0.25000 
C          C       0.36308   0.63585   0.75000 
C          C       0.36415   0.72723   0.75000 
C          C       0.27277   0.63692   0.75000 
C          C       0.63692   0.36415   0.25000 
C          C       0.63585   0.27277   0.25000 
C          C       0.72723   0.36308   0.25000 
N          N       0.30275   0.60657   0.75000 
N          N       0.39343   0.69618   0.75000 
N          N       0.30382   0.69725   0.75000 
N          N       0.69725   0.39343   0.25000 
N          N       0.60657   0.30382   0.25000 
N          N       0.69618   0.30275   0.25000 
H          H       0.65962   0.47324   0.75000 
H          H       0.52676   0.18638   0.75000 
H          H       0.81362   0.34038   0.75000 
H          H       0.34038   0.52676   0.25000 
H          H       0.47324   0.81362   0.25000 
H          H       0.18638   0.65962   0.25000 
H          H       0.44162   0.33660   0.75000 
H          H       0.66340   0.10502   0.75000 
H          H       0.89498   0.55838   0.75000 
H          H       0.55838   0.66340   0.25000 
H          H       0.33660   0.89498   0.25000 
H          H       0.10502   0.44162   0.25000 
H          H       0.50794   0.29543   0.75000 
H          H       0.70457   0.21251   0.75000 
H          H       0.78749   0.49206   0.75000 
H          H       0.49206   0.70457   0.25000 
H          H       0.29543   0.78749   0.25000 
H          H       0.21251   0.50794   0.25000 
H          H       0.42397   0.42069   0.75000 
H          H       0.57931   0.00328   0.75000 
H          H       0.99672   0.57603   0.75000 
H          H       0.57603   0.57931   0.25000 
H          H       0.42069   0.99672   0.25000 
H          H       0.00328   0.42397   0.25000 
H          H       0.36862   0.46044   0.75000 
H          H       0.53956   0.90818   0.75000 
H          H       0.09182   0.63138   0.75000 
H          H       0.63138   0.53956   0.25000 
H          H       0.46044   0.09182   0.25000 
H          H       0.90818   0.36862   0.25000 
H          H       0.31612   0.51531   0.75000 
H          H       0.48469   0.80081   0.75000 
H          H       0.19919   0.68388   0.75000 
H          H       0.68388   0.48469   0.25000 
H          H       0.51531   0.19919   0.25000 
H          H       0.80081   0.31612   0.25000 
H          H       0.48335   0.68051   0.75000 
H          H       0.31949   0.80284   0.75000 
H          H       0.19716   0.51665   0.75000 
H          H       0.51665   0.31949   0.25000 
H          H       0.68051   0.19716   0.25000 
H          H       0.80284   0.48335   0.25000 
H          H       0.53630   0.62488   0.75000 
H          H       0.37512   0.91142   0.75000 
H          H       0.08858   0.46370   0.75000 
H          H       0.46370   0.37512   0.25000 
H          H       0.62488   0.08858   0.25000 
H          H       0.91142   0.53630   0.25000 
H          H       0.59320   0.51401   0.75000 
H          H       0.48599   0.07919   0.75000 
H          H       0.92081   0.40680   0.75000 
H          H       0.40680   0.48599   0.25000 
H          H       0.51401   0.92081   0.25000 
H          H       0.07919   0.59320   0.25000 
