data_crystal

_cell_length_a    17.05520
_cell_length_b    7.46540
_cell_length_c    16.75660
_cell_angle_alpha 90.63600
_cell_angle_beta  97.59500
_cell_angle_gamma 100.42400

_space_group_name_Hall 'P 1'
_space_group_name_H-M_alt 'P 1'

loop_
_symmetry_equiv_pos_as_xyz
 'x,y,z'

loop_
_atom_site_label
_atom_site_type_symbol
_atom_site_fract_x
_atom_site_fract_y
_atom_site_fract_z
S          S       0.40757   0.63594   0.14352
S          S       0.59243   0.36406   0.35648
O          O       0.38284   0.44520   0.11995
O          O       0.61716   0.55480   0.38005
O          O       0.36372   0.75940   0.09730
O          O       0.63628   0.24060   0.40270
N          N       0.68331   0.80460   0.03380
N          N       0.31669   0.19540   0.46620
N          N       0.28910   0.67510   0.41340
N          N       0.71090   0.32490   0.08660
C          C       0.51027   0.70800   0.14780
C          C       0.48973   0.29200   0.35220
C          C       0.54499   0.78380   0.22321
C          C       0.45501   0.21620   0.27679
C          C       0.62601   0.86380   0.23611
C          C       0.37399   0.13620   0.26389
H          H       0.64970   0.91550   0.28765
H          H       0.35030   0.08450   0.21235
C          C       0.67231   0.86800   0.17360
C          C       0.32769   0.13200   0.32640
H          H       0.72770   0.92260   0.18240
H          H       0.27230   0.07740   0.31760
C          C       0.63759   0.79220   0.09819
C          C       0.36241   0.20780   0.40181
C          C       0.55657   0.71230   0.08529
C          C       0.44343   0.28770   0.41471
H          H       0.53280   0.66050   0.03375
H          H       0.46720   0.33950   0.46625
C          C       0.40845   0.67450   0.24531
C          C       0.59155   0.32550   0.25469
C          C       0.34390   0.64270   0.28915
C          C       0.65610   0.35730   0.21085
H          H       0.29290   0.57990   0.26435
H          H       0.70710   0.42010   0.23565
C          C       0.35402   0.70250   0.36935
C          C       0.64598   0.29750   0.13065
C          C       0.42871   0.79430   0.40566
C          C       0.57129   0.20570   0.09434
H          H       0.43560   0.83520   0.46045
H          H       0.56440   0.16480   0.03955
C          C       0.49326   0.82620   0.36180
C          C       0.50674   0.17380   0.13820
H          H       0.54430   0.88890   0.38660
H          H       0.45570   0.11110   0.11340
C          C       0.48314   0.76630   0.28160
C          C       0.51686   0.23370   0.21840
H          H       0.30200   0.70100   0.46300
H          H       0.69800   0.29900   0.03700
H          H       0.73700   0.83100   0.04300
H          H       0.26300   0.16900   0.45700
H          H       0.66600   0.73800   0.49300
H          H       0.33400   0.26200   0.00700
H          H       0.24700   0.60600   0.39800
H          H       0.75300   0.39400   0.10200
S          S       0.90684   0.77777   0.14652
S          S       0.09316   0.22223   0.35347
O          O       0.87605   0.94120   0.12370
O          O       0.12395   0.05880   0.37630
O          O       0.86573   0.61260   0.10115
O          O       0.13427   0.38740   0.39885
N          N       0.79980   0.63090   0.42045
N          N       0.20020   0.36910   0.07955
N          N       0.18040   0.86930   0.03010
N          N       0.81960   0.13070   0.46990
C          C       0.91181   0.74090   0.24841
C          C       0.08819   0.25910   0.25160
C          C       0.84851   0.70870   0.29390
C          C       0.15149   0.29130   0.20610
H          H       0.79600   0.72130   0.27065
H          H       0.20400   0.27870   0.22935
C          C       0.86207   0.65790   0.37335
C          C       0.13793   0.34210   0.12665
C          C       0.93893   0.63940   0.40736
C          C       0.06107   0.36060   0.09264
H          H       0.94820   0.60470   0.46170
H          H       0.05180   0.39530   0.03830
C          C       0.00224   0.67160   0.36185
C          C       0.99776   0.32840   0.13815
H          H       0.05480   0.65890   0.38510
H          H       0.94520   0.34110   0.11490
C          C       0.98868   0.72230   0.28240
C          C       0.01132   0.27770   0.21760
C          C       0.01021   0.80350   0.14785
C          C       0.98979   0.19650   0.35215
C          C       0.04836   0.76620   0.22272
C          C       0.95164   0.23380   0.27728
C          C       0.13075   0.76840   0.23395
C          C       0.86925   0.23160   0.26605
H          H       0.15680   0.74290   0.28510
H          H       0.84320   0.25710   0.21490
C          C       0.17499   0.80780   0.17030
C          C       0.82501   0.19220   0.32970
H          H       0.23130   0.80930   0.17800
H          H       0.76870   0.19070   0.32200
C          C       0.13684   0.84510   0.09545
C          C       0.86316   0.15490   0.40455
C          C       0.05445   0.84300   0.08422
C          C       0.94555   0.15700   0.41578
H          H       0.02840   0.86840   0.03305
H          H       0.97160   0.13160   0.46695
H          H       0.23400   0.88300   0.03950
H          H       0.76600   0.11700   0.46050
H          H       0.81000   0.59600   0.46950
H          H       0.19000   0.40400   0.03050
H          H       0.74800   0.61700   0.40400
H          H       0.25200   0.38300   0.09600
H          H       0.16100   0.91900   0.49400
H          H       0.83900   0.08100   0.00600
S          S       0.40757   0.63594   0.64352
S          S       0.59243   0.36406   0.85648
O          O       0.38284   0.44520   0.61995
O          O       0.61716   0.55480   0.88005
O          O       0.36372   0.75940   0.59730
O          O       0.63628   0.24060   0.90270
N          N       0.68331   0.80460   0.53380
N          N       0.31669   0.19540   0.96620
N          N       0.28910   0.67510   0.91340
N          N       0.71090   0.32490   0.58660
C          C       0.51027   0.70800   0.64780
C          C       0.48973   0.29200   0.85220
C          C       0.54499   0.78380   0.72321
C          C       0.45501   0.21620   0.77679
C          C       0.62601   0.86380   0.73611
C          C       0.37399   0.13620   0.76389
H          H       0.64970   0.91550   0.78765
H          H       0.35030   0.08450   0.71235
C          C       0.67231   0.86800   0.67360
C          C       0.32769   0.13200   0.82640
H          H       0.72770   0.92260   0.68240
H          H       0.27230   0.07740   0.81760
C          C       0.63759   0.79220   0.59819
C          C       0.36241   0.20780   0.90181
C          C       0.55657   0.71230   0.58530
C          C       0.44343   0.28770   0.91470
H          H       0.53280   0.66050   0.53375
H          H       0.46720   0.33950   0.96625
C          C       0.40845   0.67450   0.74531
C          C       0.59155   0.32550   0.75469
C          C       0.34390   0.64270   0.78915
C          C       0.65610   0.35730   0.71085
H          H       0.29290   0.57990   0.76435
H          H       0.70710   0.42010   0.73565
C          C       0.35402   0.70250   0.86935
C          C       0.64598   0.29750   0.63065
C          C       0.42871   0.79430   0.90566
C          C       0.57129   0.20570   0.59434
H          H       0.43560   0.83520   0.96045
H          H       0.56440   0.16480   0.53955
C          C       0.49326   0.82620   0.86180
C          C       0.50674   0.17380   0.63820
H          H       0.54430   0.88890   0.88660
H          H       0.45570   0.11110   0.61340
C          C       0.48314   0.76630   0.78160
C          C       0.51686   0.23370   0.71840
H          H       0.30200   0.70100   0.96300
H          H       0.69800   0.29900   0.53700
H          H       0.73700   0.83100   0.54300
H          H       0.26300   0.16900   0.95700
H          H       0.66600   0.73800   0.99300
H          H       0.33400   0.26200   0.50700
H          H       0.24700   0.60600   0.89800
H          H       0.75300   0.39400   0.60200
S          S       0.90684   0.77777   0.64653
S          S       0.09316   0.22223   0.85347
O          O       0.87605   0.94120   0.62370
O          O       0.12395   0.05880   0.87630
O          O       0.86573   0.61260   0.60115
O          O       0.13427   0.38740   0.89885
N          N       0.79980   0.63090   0.92045
N          N       0.20020   0.36910   0.57955
N          N       0.18040   0.86930   0.53010
N          N       0.81960   0.13070   0.96990
C          C       0.91181   0.74090   0.74841
C          C       0.08819   0.25910   0.75159
C          C       0.84851   0.70870   0.79390
C          C       0.15149   0.29130   0.70610
H          H       0.79600   0.72130   0.77065
H          H       0.20400   0.27870   0.72935
C          C       0.86207   0.65790   0.87335
C          C       0.13793   0.34210   0.62665
C          C       0.93893   0.63940   0.90736
C          C       0.06107   0.36060   0.59265
H          H       0.94820   0.60470   0.96170
H          H       0.05180   0.39530   0.53830
C          C       0.00224   0.67160   0.86185
C          C       0.99776   0.32840   0.63815
H          H       0.05480   0.65890   0.88510
H          H       0.94520   0.34110   0.61490
C          C       0.98868   0.72230   0.78240
C          C       0.01132   0.27770   0.71760
C          C       0.01021   0.80350   0.64785
C          C       0.98979   0.19650   0.85215
C          C       0.04836   0.76620   0.72272
C          C       0.95164   0.23380   0.77728
C          C       0.13075   0.76840   0.73395
C          C       0.86925   0.23160   0.76605
H          H       0.15680   0.74290   0.78510
H          H       0.84320   0.25710   0.71490
C          C       0.17499   0.80780   0.67030
C          C       0.82501   0.19220   0.82970
H          H       0.23130   0.80930   0.67800
H          H       0.76870   0.19070   0.82200
C          C       0.13684   0.84510   0.59545
C          C       0.86316   0.15490   0.90455
C          C       0.05445   0.84300   0.58423
C          C       0.94555   0.15700   0.91578
H          H       0.02840   0.86840   0.53305
H          H       0.97160   0.13160   0.96695
H          H       0.23400   0.88300   0.53950
H          H       0.76600   0.11700   0.96050
H          H       0.81000   0.59600   0.96950
H          H       0.19000   0.40400   0.53050
H          H       0.74800   0.61700   0.90400
H          H       0.25200   0.38300   0.59600
H          H       0.16100   0.91900   0.99400
H          H       0.83900   0.08100   0.50600
