data_crystal

_cell_length_a    10.03130
_cell_length_b    13.50150
_cell_length_c    11.73320
_cell_angle_alpha 97.08200
_cell_angle_beta  90.00000
_cell_angle_gamma 90.00000

_space_group_name_Hall 'P 1'
_space_group_name_H-M_alt 'P 1'

loop_
_symmetry_equiv_pos_as_xyz
 'x,y,z'

loop_
_atom_site_label
_atom_site_type_symbol
_atom_site_fract_x
_atom_site_fract_y
_atom_site_fract_z
S          S       0.24091   0.43963   0.11888
S          S       0.74091   0.06037   0.38112
S          S       0.75909   0.56037   0.38112
S          S       0.25909   0.93963   0.11888
O          O       0.12182   0.45022   0.05220
O          O       0.62182   0.04978   0.44780
O          O       0.87818   0.54978   0.44780
O          O       0.37818   0.95022   0.05220
O          O       0.25729   0.34573   0.16455
O          O       0.75729   0.15427   0.33545
O          O       0.74271   0.65427   0.33545
O          O       0.24271   0.84573   0.16455
N          N       0.13900   0.67202   0.49655
N          N       0.63900   0.82798   0.00345
N          N       0.86100   0.32798   0.00345
N          N       0.36100   0.17202   0.49655
C          C       0.61410   0.53163   0.45690
C          C       0.11410   0.96837   0.04310
C          C       0.38590   0.46837   0.04310
C          C       0.88590   0.03163   0.45690
C          C       0.56970   0.58358   0.05880
C          C       0.06970   0.91642   0.44120
C          C       0.43030   0.41642   0.44120
C          C       0.93030   0.08358   0.05880
H          H       0.61800   0.63860   0.09665
H          H       0.11800   0.86140   0.40335
H          H       0.38200   0.36140   0.40335
H          H       0.88200   0.13860   0.09665
C          C       0.45080   0.55134   0.10335
C          C       0.95080   0.94866   0.39665
C          C       0.54920   0.44866   0.39665
C          C       0.04920   0.05134   0.10335
C          C       0.26296   0.53869   0.22510
C          C       0.76296   0.96131   0.27490
C          C       0.73704   0.46131   0.27490
C          C       0.23704   0.03869   0.22510
C          C       0.18345   0.56504   0.32110
C          C       0.68345   0.93496   0.17890
C          C       0.81655   0.43496   0.17890
C          C       0.31655   0.06504   0.32110
H          H       0.10490   0.52810   0.33215
H          H       0.60490   0.97190   0.16785
H          H       0.89510   0.47190   0.16785
H          H       0.39510   0.02810   0.33215
C          C       0.21881   0.64551   0.40090
C          C       0.71881   0.85449   0.09910
C          C       0.78119   0.35449   0.09910
C          C       0.28119   0.14551   0.40090
C          C       0.33369   0.69963   0.38475
C          C       0.83369   0.80037   0.11525
C          C       0.66631   0.30037   0.11525
C          C       0.16631   0.19963   0.38475
H          H       0.35790   0.75460   0.43930
H          H       0.85790   0.74540   0.06070
H          H       0.64210   0.24540   0.06070
H          H       0.14210   0.25460   0.43930
C          C       0.41321   0.67328   0.28875
C          C       0.91321   0.82672   0.21125
C          C       0.58679   0.32672   0.21125
C          C       0.08679   0.17328   0.28875
H          H       0.49170   0.71030   0.27770
H          H       0.99170   0.78970   0.22230
H          H       0.50830   0.28970   0.22230
H          H       0.00830   0.21030   0.27770
C          C       0.37785   0.59281   0.20895
C          C       0.87785   0.90719   0.29105
C          C       0.62215   0.40719   0.29105
C          C       0.12215   0.09281   0.20895
H          H       0.17100   0.70700   0.05600
H          H       0.67100   0.79300   0.44400
H          H       0.82900   0.29300   0.44400
H          H       0.32900   0.20700   0.05600
H          H       0.07300   0.63100   0.01050
H          H       0.57300   0.86900   0.48950
H          H       0.92700   0.36900   0.48950
H          H       0.42700   0.13100   0.01050
S          S       0.24091   0.43963   0.61888
S          S       0.74091   0.06037   0.88112
S          S       0.75909   0.56037   0.88112
S          S       0.25909   0.93963   0.61888
O          O       0.12182   0.45022   0.55220
O          O       0.62182   0.04978   0.94780
O          O       0.87818   0.54978   0.94780
O          O       0.37818   0.95022   0.55220
O          O       0.25729   0.34573   0.66455
O          O       0.75729   0.15427   0.83545
O          O       0.74271   0.65427   0.83545
O          O       0.24271   0.84573   0.66455
N          N       0.13900   0.67202   0.99655
N          N       0.63900   0.82798   0.50345
N          N       0.86100   0.32798   0.50345
N          N       0.36100   0.17202   0.99655
C          C       0.61410   0.53163   0.95690
C          C       0.11410   0.96837   0.54310
C          C       0.38590   0.46837   0.54310
C          C       0.88590   0.03163   0.95690
C          C       0.56970   0.58358   0.55880
C          C       0.06970   0.91642   0.94120
C          C       0.43030   0.41642   0.94120
C          C       0.93030   0.08358   0.55880
H          H       0.61800   0.63860   0.59665
H          H       0.11800   0.86140   0.90335
H          H       0.38200   0.36140   0.90335
H          H       0.88200   0.13860   0.59665
C          C       0.45080   0.55134   0.60335
C          C       0.95080   0.94866   0.89665
C          C       0.54920   0.44866   0.89665
C          C       0.04920   0.05134   0.60335
C          C       0.26296   0.53869   0.72510
C          C       0.76296   0.96131   0.77490
C          C       0.73704   0.46131   0.77490
C          C       0.23704   0.03869   0.72510
C          C       0.18345   0.56504   0.82110
C          C       0.68345   0.93496   0.67890
C          C       0.81655   0.43496   0.67890
C          C       0.31655   0.06504   0.82110
H          H       0.10490   0.52810   0.83215
H          H       0.60490   0.97190   0.66785
H          H       0.89510   0.47190   0.66785
H          H       0.39510   0.02810   0.83215
C          C       0.21881   0.64551   0.90090
C          C       0.71881   0.85449   0.59910
C          C       0.78119   0.35449   0.59910
C          C       0.28119   0.14551   0.90090
C          C       0.33369   0.69963   0.88475
C          C       0.83369   0.80037   0.61525
C          C       0.66631   0.30037   0.61525
C          C       0.16631   0.19963   0.88475
H          H       0.35790   0.75460   0.93930
H          H       0.85790   0.74540   0.56070
H          H       0.64210   0.24540   0.56070
H          H       0.14210   0.25460   0.93930
C          C       0.41321   0.67328   0.78875
C          C       0.91321   0.82672   0.71125
C          C       0.58679   0.32672   0.71125
C          C       0.08679   0.17328   0.78875
H          H       0.49170   0.71030   0.77770
H          H       0.99170   0.78970   0.72230
H          H       0.50830   0.28970   0.72230
H          H       0.00830   0.21030   0.77770
C          C       0.37785   0.59281   0.70895
C          C       0.87785   0.90719   0.79105
C          C       0.62215   0.40719   0.79105
C          C       0.12215   0.09281   0.70895
H          H       0.17100   0.70700   0.55600
H          H       0.67100   0.79300   0.94400
H          H       0.82900   0.29300   0.94400
H          H       0.32900   0.20700   0.55600
H          H       0.07300   0.63100   0.51050
H          H       0.57300   0.86900   0.98950
H          H       0.92700   0.36900   0.98950
H          H       0.42700   0.13100   0.51050
