data_PI-COF-SR
_audit_creation_date              0000-00-00
_audit_creation_method            'LanYouShi'
_symmetry_space_group_name_H-M    'P1'
_cell_length_a                    36.2960014
_cell_length_b                    36.2960014
_cell_length_c                    3.4928000
_cell_angle_alpha                 90.0000000
_cell_angle_beta                  90.0000000
_cell_angle_gamma                 120.0000000
loop_
_atom_site_label
_atom_site_type_symbol
_atom_site_fract_x
_atom_site_fract_y
_atom_site_fract_z
_atom_site_U_iso_or_equiv
_atom_site_adp_type
_atom_site_occupancy
        N1          N  0.4464153  0.5536669  0.5000045    0.00000       Uiso       1.00
        N2          N  0.4463322  0.8927475  0.5000045    0.00000       Uiso       1.00
        N3          N  0.1072517  0.5535839  0.5000045    0.00000       Uiso       1.00
        N4          N  0.5535839  0.4463322  0.5000045    0.00000       Uiso       1.00
        N5          N  0.5536670  0.1072517  0.5000045    0.00000       Uiso       1.00
        N6          N  0.8927475  0.4464153  0.5000045    0.00000       Uiso       1.00
        C1          C  0.5395380  0.5395251  0.5000045    0.00000       Uiso       1.00
        C2          C  0.4604741  0.0000129  0.5000045    0.00000       Uiso       1.00
        C3          C  0.9999863  0.4604612  0.5000045    0.00000       Uiso       1.00
        C4          C  0.4604612  0.4604741  0.5000045    0.00000       Uiso       1.00
        C5          C  0.5395251  0.9999863  0.5000045    0.00000       Uiso       1.00
        C6          C  0.0000129  0.5395380  0.5000045    0.00000       Uiso       1.00
        C7          C  0.5382246  0.4999774  0.5000045    0.00000       Uiso       1.00
        C8          C  0.5000218  0.0382473  0.5000045    0.00000       Uiso       1.00
        C9          C  0.9617519  0.4617745  0.5000045    0.00000       Uiso       1.00
       C10          C  0.4617745  0.5000218  0.5000045    0.00000       Uiso       1.00
       C11          C  0.4999774  0.9617519  0.5000045    0.00000       Uiso       1.00
       C12          C  0.0382473  0.5382247  0.5000045    0.00000       Uiso       1.00
       C13          C  0.4999991  0.4617704  0.5000045    0.00000       Uiso       1.00
       C14          C  0.5382288  0.0382287  0.5000045    0.00000       Uiso       1.00
       C15          C  0.9617705  0.5000001  0.5000045    0.00000       Uiso       1.00
       C16          C  0.5000001  0.5382288  0.5000045    0.00000       Uiso       1.00
       C17          C  0.4617704  0.9617705  0.5000045    0.00000       Uiso       1.00
       C18          C  0.0382287  0.4999991  0.5000045    0.00000       Uiso       1.00
       C19          C  0.3551043  0.7104130  0.5000045    0.00000       Uiso       1.00
       C20          C  0.2895862  0.6446905  0.5000045    0.00000       Uiso       1.00
       C21          C  0.3553087  0.6448949  0.5000045    0.00000       Uiso       1.00
       C22          C  0.6448950  0.2895862  0.5000045    0.00000       Uiso       1.00
       C23          C  0.7104130  0.3553088  0.5000045    0.00000       Uiso       1.00
       C24          C  0.6446905  0.3551043  0.5000045    0.00000       Uiso       1.00
        N7          N  0.3119941  0.6878101  0.5000045    0.00000       Uiso       1.00
        N8          N  0.3121892  0.6241833  0.5000045    0.00000       Uiso       1.00
        N9          N  0.3758159  0.6880051  0.5000045    0.00000       Uiso       1.00
       N10          N  0.6880050  0.3121891  0.5000045    0.00000       Uiso       1.00
       N11          N  0.6878101  0.3758159  0.5000045    0.00000       Uiso       1.00
       N12          N  0.6241833  0.3119941  0.5000045    0.00000       Uiso       1.00
       C25          C  0.3776217  0.7554696  0.5000045    0.00000       Uiso       1.00
       C26          C  0.2445296  0.6221513  0.5000045    0.00000       Uiso       1.00
       C27          C  0.3778479  0.6223775  0.5000045    0.00000       Uiso       1.00
       C28          C  0.6223775  0.2445296  0.5000045    0.00000       Uiso       1.00
       C29          C  0.7554696  0.3778479  0.5000045    0.00000       Uiso       1.00
       C30          C  0.6221514  0.3776217  0.5000045    0.00000       Uiso       1.00
       C31          C  0.3564997  0.5774642  0.5000045    0.00000       Uiso       1.00
       C32          C  0.4225349  0.7790346  0.5000045    0.00000       Uiso       1.00
       C33          C  0.2209646  0.6434995  0.5000045    0.00000       Uiso       1.00
       C34          C  0.6434996  0.4225349  0.5000045    0.00000       Uiso       1.00
       C35          C  0.5774642  0.2209646  0.5000045    0.00000       Uiso       1.00
       C36          C  0.7790346  0.3564997  0.5000045    0.00000       Uiso       1.00
       C37          C  0.3790380  0.5552226  0.5000045    0.00000       Uiso       1.00
       C38          C  0.4447766  0.8238146  0.5000045    0.00000       Uiso       1.00
       C39          C  0.1761846  0.6209612  0.5000045    0.00000       Uiso       1.00
       C40          C  0.6209612  0.4447766  0.5000045    0.00000       Uiso       1.00
       C41          C  0.5552226  0.1761846  0.5000045    0.00000       Uiso       1.00
       C42          C  0.8238146  0.3790380  0.5000045    0.00000       Uiso       1.00
       C43          C  0.4243024  0.5758131  0.5000045    0.00000       Uiso       1.00
       C44          C  0.4241861  0.8484886  0.5000045    0.00000       Uiso       1.00
       C45          C  0.1515106  0.5756968  0.5000045    0.00000       Uiso       1.00
       C46          C  0.5756968  0.4241861  0.5000045    0.00000       Uiso       1.00
       C47          C  0.5758131  0.1515107  0.5000045    0.00000       Uiso       1.00
       C48          C  0.8484885  0.4243024  0.5000045    0.00000       Uiso       1.00
       C49          C  0.4449325  0.6210740  0.5000045    0.00000       Uiso       1.00
       C50          C  0.3789252  0.8238576  0.5000045    0.00000       Uiso       1.00
       C51          C  0.1761415  0.5550667  0.5000045    0.00000       Uiso       1.00
       C52          C  0.5550668  0.3789252  0.5000045    0.00000       Uiso       1.00
       C53          C  0.6210740  0.1761416  0.5000045    0.00000       Uiso       1.00
       C54          C  0.8238576  0.4449325  0.5000045    0.00000       Uiso       1.00
       C55          C  0.4227515  0.6436571  0.5000045    0.00000       Uiso       1.00
       C56          C  0.3563420  0.7790935  0.5000045    0.00000       Uiso       1.00
       C57          C  0.2209057  0.5772477  0.5000045    0.00000       Uiso       1.00
       C58          C  0.5772477  0.3563421  0.5000045    0.00000       Uiso       1.00
       C59          C  0.6436571  0.2209057  0.5000045    0.00000       Uiso       1.00
       C60          C  0.7790936  0.4227515  0.5000045    0.00000       Uiso       1.00
        H1          H  0.3239342  0.5603070  0.5000045    0.00000       Uiso       1.00
        H2          H  0.4396922  0.7636264  0.5000045    0.00000       Uiso       1.00
        H3          H  0.2363728  0.6760650  0.5000045    0.00000       Uiso       1.00
        H4          H  0.6760650  0.4396922  0.5000045    0.00000       Uiso       1.00
        H5          H  0.5603070  0.2363728  0.5000045    0.00000       Uiso       1.00
        H6          H  0.7636265  0.3239342  0.5000045    0.00000       Uiso       1.00
        H7          H  0.3606767  0.5231029  0.5000045    0.00000       Uiso       1.00
        H8          H  0.4768963  0.8375731  0.5000045    0.00000       Uiso       1.00
        H9          H  0.1624262  0.6393225  0.5000045    0.00000       Uiso       1.00
       H10          H  0.6393225  0.4768963  0.5000045    0.00000       Uiso       1.00
       H11          H  0.5231029  0.1624262  0.5000045    0.00000       Uiso       1.00
       H12          H  0.8375730  0.3606767  0.5000045    0.00000       Uiso       1.00
       H13          H  0.4770605  0.6394635  0.5000045    0.00000       Uiso       1.00
       H14          H  0.3605357  0.8375961  0.5000045    0.00000       Uiso       1.00
       H15          H  0.1624030  0.5229387  0.5000045    0.00000       Uiso       1.00
       H16          H  0.5229387  0.3605357  0.5000045    0.00000       Uiso       1.00
       H17          H  0.6394635  0.1624030  0.5000045    0.00000       Uiso       1.00
       H18          H  0.8375962  0.4770605  0.5000045    0.00000       Uiso       1.00
       H19          H  0.4400370  0.6762058  0.5000045    0.00000       Uiso       1.00
       H20          H  0.3237935  0.7638304  0.5000045    0.00000       Uiso       1.00
       H21          H  0.2361688  0.5599623  0.5000045    0.00000       Uiso       1.00
       H22          H  0.5599622  0.3237934  0.5000045    0.00000       Uiso       1.00
       H23          H  0.6762058  0.2361688  0.5000045    0.00000       Uiso       1.00
       H24          H  0.7638304  0.4400370  0.5000045    0.00000       Uiso       1.00
       C61          C  0.5702610  0.4896559  0.5000045    0.00000       Uiso       1.00
       C62          C  0.5102705  0.4296975  0.5000045    0.00000       Uiso       1.00
       H25          H  0.5676928  0.5676724  0.5000045    0.00000       Uiso       1.00
        O1          O  0.6082919  0.5188825  0.5000045    0.00000       Uiso       1.00
        O2          O  0.4810248  0.3916747  0.5000045    0.00000       Uiso       1.00
       C63          C  0.5103433  0.0806051  0.5000045    0.00000       Uiso       1.00
       C64          C  0.5703017  0.0805730  0.5000045    0.00000       Uiso       1.00
       H26          H  0.4323269  0.0000204  0.5000045    0.00000       Uiso       1.00
        O3          O  0.4811167  0.0894094  0.5000045    0.00000       Uiso       1.00
        O4          O  0.6083245  0.0893501  0.5000045    0.00000       Uiso       1.00
       C65          C  0.9193941  0.4297382  0.5000045    0.00000       Uiso       1.00
       C66          C  0.9194262  0.4897287  0.5000045    0.00000       Uiso       1.00
       H27          H  0.9999788  0.4323064  0.5000045    0.00000       Uiso       1.00
        O5          O  0.9105898  0.3917073  0.5000045    0.00000       Uiso       1.00
        O6          O  0.9106491  0.5189744  0.5000045    0.00000       Uiso       1.00
       C67          C  0.4297382  0.5103433  0.5000045    0.00000       Uiso       1.00
       C68          C  0.4897287  0.5703017  0.5000045    0.00000       Uiso       1.00
       H28          H  0.4323064  0.4323269  0.5000045    0.00000       Uiso       1.00
        O7          O  0.3917073  0.4811167  0.5000045    0.00000       Uiso       1.00
        O8          O  0.5189744  0.6083245  0.5000045    0.00000       Uiso       1.00
       C69          C  0.4896559  0.9193941  0.5000045    0.00000       Uiso       1.00
       C70          C  0.4296975  0.9194262  0.5000045    0.00000       Uiso       1.00
       H29          H  0.5676723  0.9999788  0.5000045    0.00000       Uiso       1.00
        O9          O  0.5188825  0.9105898  0.5000045    0.00000       Uiso       1.00
       O10          O  0.3916747  0.9106491  0.5000045    0.00000       Uiso       1.00
       C71          C  0.0806051  0.5702610  0.5000045    0.00000       Uiso       1.00
       C72          C  0.0805730  0.5102705  0.5000045    0.00000       Uiso       1.00
       H30          H  0.0000204  0.5676928  0.5000045    0.00000       Uiso       1.00
       O11          O  0.0894094  0.6082919  0.5000045    0.00000       Uiso       1.00
       O12          O  0.0893501  0.4810248  0.5000045    0.00000       Uiso       1.00
