data_PI-COF
_audit_creation_date              0000-00-00
_audit_creation_method            'LanYouShi'
_symmetry_space_group_name_H-M    'P1'
_cell_length_a                    42.0962982
_cell_length_b                    42.0962982
_cell_length_c                    6.6626000
_cell_angle_alpha                 90.0000000
_cell_angle_beta                  90.0000000
_cell_angle_gamma                 90.0000000
loop_
_atom_site_label
_atom_site_type_symbol
_atom_site_fract_x
_atom_site_fract_y
_atom_site_fract_z
_atom_site_U_iso_or_equiv
_atom_site_adp_type
_atom_site_occupancy
        C1          C  0.0946915  0.5942470 -0.1828492    0.00000       Uiso       1.00
        H1          H  0.0863145  0.5858411 -0.3166656    0.00000       Uiso       1.00
        C2          C  0.1182690  0.6179180 -0.1827148    0.00000       Uiso       1.00
        H2          H  0.1267315  0.6264241 -0.3159645    0.00000       Uiso       1.00
        C3          C  0.9053079  0.4057523 -0.1828492    0.00000       Uiso       1.00
        H3          H  0.9136848  0.4141583 -0.3166656    0.00000       Uiso       1.00
        C4          C  0.8817304  0.3820814 -0.1827148    0.00000       Uiso       1.00
        H4          H  0.8732678  0.3735752 -0.3159645    0.00000       Uiso       1.00
        C5          C  0.4057523  0.0946915 -0.1828492    0.00000       Uiso       1.00
        H5          H  0.4141583  0.0863145 -0.3166656    0.00000       Uiso       1.00
        C6          C  0.3820814  0.1182690 -0.1827148    0.00000       Uiso       1.00
        H6          H  0.3735752  0.1267315 -0.3159645    0.00000       Uiso       1.00
        C7          C  0.5942470  0.9053079 -0.1828492    0.00000       Uiso       1.00
        H7          H  0.5858411  0.9136848 -0.3166656    0.00000       Uiso       1.00
        C8          C  0.6179180  0.8817304 -0.1827148    0.00000       Uiso       1.00
        H8          H  0.6264241  0.8732678 -0.3159645    0.00000       Uiso       1.00
        C9          C  0.9053079  0.5942470  0.1828492    0.00000       Uiso       1.00
        H9          H  0.9136848  0.5858411  0.3166656    0.00000       Uiso       1.00
       C10          C  0.8817304  0.6179180  0.1827148    0.00000       Uiso       1.00
       H10          H  0.8732678  0.6264241  0.3159645    0.00000       Uiso       1.00
       C11          C  0.0946915  0.4057523  0.1828492    0.00000       Uiso       1.00
       H11          H  0.0863145  0.4141583  0.3166656    0.00000       Uiso       1.00
       C12          C  0.1182690  0.3820814  0.1827148    0.00000       Uiso       1.00
       H12          H  0.1267315  0.3735752  0.3159645    0.00000       Uiso       1.00
       C13          C  0.5942470  0.0946915  0.1828492    0.00000       Uiso       1.00
       H13          H  0.5858411  0.0863145  0.3166656    0.00000       Uiso       1.00
       C14          C  0.6179180  0.1182690  0.1827148    0.00000       Uiso       1.00
       H14          H  0.6264241  0.1267315  0.3159645    0.00000       Uiso       1.00
       C15          C  0.4057523  0.9053079  0.1828492    0.00000       Uiso       1.00
       H15          H  0.4141583  0.9136848  0.3166656    0.00000       Uiso       1.00
       C16          C  0.3820814  0.8817304  0.1827148    0.00000       Uiso       1.00
       H16          H  0.3735752  0.8732678  0.3159645    0.00000       Uiso       1.00
       C17          C  0.9053079  0.4057523  0.1828492    0.00000       Uiso       1.00
       H17          H  0.9136848  0.4141583  0.3166656    0.00000       Uiso       1.00
       C18          C  0.8817304  0.3820814  0.1827148    0.00000       Uiso       1.00
       H18          H  0.8732678  0.3735752  0.3159645    0.00000       Uiso       1.00
       C19          C  0.0946915  0.5942470  0.1828492    0.00000       Uiso       1.00
       H19          H  0.0863145  0.5858411  0.3166656    0.00000       Uiso       1.00
       C20          C  0.1182690  0.6179180  0.1827148    0.00000       Uiso       1.00
       H20          H  0.1267315  0.6264241  0.3159645    0.00000       Uiso       1.00
       C21          C  0.5942470  0.9053079  0.1828492    0.00000       Uiso       1.00
       H21          H  0.5858411  0.9136848  0.3166656    0.00000       Uiso       1.00
       C22          C  0.6179180  0.8817304  0.1827148    0.00000       Uiso       1.00
       H22          H  0.6264241  0.8732678  0.3159645    0.00000       Uiso       1.00
       C23          C  0.4057523  0.0946915  0.1828492    0.00000       Uiso       1.00
       H23          H  0.4141583  0.0863145  0.3166656    0.00000       Uiso       1.00
       C24          C  0.3820814  0.1182690  0.1827148    0.00000       Uiso       1.00
       H24          H  0.3735752  0.1267315  0.3159645    0.00000       Uiso       1.00
       C25          C  0.0946915  0.4057523 -0.1828492    0.00000       Uiso       1.00
       H25          H  0.0863145  0.4141583 -0.3166656    0.00000       Uiso       1.00
       C26          C  0.1182690  0.3820814 -0.1827148    0.00000       Uiso       1.00
       H26          H  0.1267315  0.3735752 -0.3159645    0.00000       Uiso       1.00
       C27          C  0.9053079  0.5942470 -0.1828492    0.00000       Uiso       1.00
       H27          H  0.9136848  0.5858411 -0.3166656    0.00000       Uiso       1.00
       C28          C  0.8817304  0.6179180 -0.1827148    0.00000       Uiso       1.00
       H28          H  0.8732678  0.6264241 -0.3159645    0.00000       Uiso       1.00
       C29          C  0.4057523  0.9053079 -0.1828492    0.00000       Uiso       1.00
       H29          H  0.4141583  0.9136848 -0.3166656    0.00000       Uiso       1.00
       C30          C  0.3820814  0.8817304 -0.1827148    0.00000       Uiso       1.00
       H30          H  0.3735752  0.8732678 -0.3159645    0.00000       Uiso       1.00
       C31          C  0.5942470  0.0946915 -0.1828492    0.00000       Uiso       1.00
       H31          H  0.5858411  0.0863145 -0.3166656    0.00000       Uiso       1.00
       C32          C  0.6179180  0.1182690 -0.1827148    0.00000       Uiso       1.00
       H32          H  0.6264241  0.1267315 -0.3159645    0.00000       Uiso       1.00
       C33          C  0.7174038  0.7414786  0.0000000    0.00000       Uiso       1.00
       C34          C  0.7094775  0.8339217  0.0000000    0.00000       Uiso       1.00
       C35          C  0.7418816  0.8433063  0.0000000    0.00000       Uiso       1.00
       C36          C  0.7671741  0.8215389  0.0000000    0.00000       Uiso       1.00
       C37          C  0.6845956  0.8566226  0.0000000    0.00000       Uiso       1.00
       H33          H  0.7477182  0.8669016  0.0000000    0.00000       Uiso       1.00
       H34          H  0.7899209  0.8299701  0.0000000    0.00000       Uiso       1.00
        O1          O  0.6915398  0.8856967  0.0000000    0.00000       Uiso       1.00
       C38          C  0.2388769  0.2130096  0.0000000    0.00000       Uiso       1.00
       C39          C  0.3312649  0.2082727  0.0000000    0.00000       Uiso       1.00
       C40          C  0.3390618  0.2409748  0.0000000    0.00000       Uiso       1.00
       C41          C  0.3156936  0.2648746  0.0000000    0.00000       Uiso       1.00
       C42          C  0.3548965  0.1843021  0.0000000    0.00000       Uiso       1.00
       H35          H  0.3623441  0.2479923  0.0000000    0.00000       Uiso       1.00
       H36          H  0.3240077  0.2875919  0.0000000    0.00000       Uiso       1.00
        O2          O  0.3836769  0.1923564  0.0000000    0.00000       Uiso       1.00
       C43          C  0.0677793  0.5265466  0.0000000    0.00000       Uiso       1.00
       C44          C  0.0993411  0.5163102  0.0000000    0.00000       Uiso       1.00
       H37          H  0.1193494  0.5300720  0.0000000    0.00000       Uiso       1.00
       C45          C  0.0271208  0.5703086  0.0000000    0.00000       Uiso       1.00
       C46          C  0.0166161  0.6019368  0.0000000    0.00000       Uiso       1.00
       H38          H  0.0304777  0.6218824  0.0000000    0.00000       Uiso       1.00
       C47          C  0.0585999  0.5588539  0.0000000    0.00000       Uiso       1.00
       C48          C  0.0826279  0.5822948  0.0000000    0.00000       Uiso       1.00
       C49          C  0.1301561  0.6300012  0.0000000    0.00000       Uiso       1.00
       C50          C  0.7261317  0.7760676  0.0000000    0.00000       Uiso       1.00
       C51          C  0.7010446  0.8011947  0.0000000    0.00000       Uiso       1.00
        N1          N  0.6532962  0.8472971  0.0000000    0.00000       Uiso       1.00
       C52          C  0.2825956  0.2585207  0.0000000    0.00000       Uiso       1.00
       C53          C  0.2905218  0.1660777  0.0000000    0.00000       Uiso       1.00
       C54          C  0.2581178  0.1566930  0.0000000    0.00000       Uiso       1.00
       C55          C  0.2328252  0.1784604  0.0000000    0.00000       Uiso       1.00
       C56          C  0.3154038  0.1433767  0.0000000    0.00000       Uiso       1.00
       H39          H  0.2522812  0.1330978  0.0000000    0.00000       Uiso       1.00
       H40          H  0.2100785  0.1700293  0.0000000    0.00000       Uiso       1.00
        O3          O  0.3084596  0.1143026  0.0000000    0.00000       Uiso       1.00
       C57          C  0.7611224  0.7869897  0.0000000    0.00000       Uiso       1.00
       C58          C  0.6687344  0.7917266  0.0000000    0.00000       Uiso       1.00
       C59          C  0.6609375  0.7590245  0.0000000    0.00000       Uiso       1.00
       C60          C  0.6843057  0.7351247  0.0000000    0.00000       Uiso       1.00
       C61          C  0.6451028  0.8156973  0.0000000    0.00000       Uiso       1.00
       H41          H  0.6376552  0.7520071  0.0000000    0.00000       Uiso       1.00
       H42          H  0.6759917  0.7124075  0.0000000    0.00000       Uiso       1.00
        O4          O  0.6163225  0.8076430  0.0000000    0.00000       Uiso       1.00
       C62          C  0.9322200  0.4734528  0.0000000    0.00000       Uiso       1.00
       C63          C  0.9006582  0.4836891  0.0000000    0.00000       Uiso       1.00
       H43          H  0.8806499  0.4699273  0.0000000    0.00000       Uiso       1.00
       C64          C  0.9728786  0.4296907  0.0000000    0.00000       Uiso       1.00
       C65          C  0.9833832  0.3980625  0.0000000    0.00000       Uiso       1.00
       H44          H  0.9695216  0.3781170  0.0000000    0.00000       Uiso       1.00
       C66          C  0.9413995  0.4411455  0.0000000    0.00000       Uiso       1.00
       C67          C  0.9173715  0.4177046  0.0000000    0.00000       Uiso       1.00
       C68          C  0.8698433  0.3699980  0.0000000    0.00000       Uiso       1.00
       C69          C  0.2738676  0.2239317  0.0000000    0.00000       Uiso       1.00
       C70          C  0.2989547  0.1988046  0.0000000    0.00000       Uiso       1.00
        N2          N  0.3467031  0.1527022  0.0000000    0.00000       Uiso       1.00
       C71          C  0.2585207  0.7174038  0.0000000    0.00000       Uiso       1.00
       C72          C  0.1660777  0.7094775  0.0000000    0.00000       Uiso       1.00
       C73          C  0.1566930  0.7418816  0.0000000    0.00000       Uiso       1.00
       C74          C  0.1784604  0.7671741  0.0000000    0.00000       Uiso       1.00
       C75          C  0.1433767  0.6845956  0.0000000    0.00000       Uiso       1.00
       H45          H  0.1330978  0.7477182  0.0000000    0.00000       Uiso       1.00
       H46          H  0.1700293  0.7899209  0.0000000    0.00000       Uiso       1.00
        O5          O  0.1143026  0.6915398  0.0000000    0.00000       Uiso       1.00
       C76          C  0.7869897  0.2388769  0.0000000    0.00000       Uiso       1.00
       C77          C  0.7917266  0.3312649  0.0000000    0.00000       Uiso       1.00
       C78          C  0.7590245  0.3390618  0.0000000    0.00000       Uiso       1.00
       C79          C  0.7351247  0.3156936  0.0000000    0.00000       Uiso       1.00
       C80          C  0.8156973  0.3548965  0.0000000    0.00000       Uiso       1.00
       H47          H  0.7520071  0.3623441  0.0000000    0.00000       Uiso       1.00
       H48          H  0.7124075  0.3240077  0.0000000    0.00000       Uiso       1.00
        O6          O  0.8076430  0.3836769  0.0000000    0.00000       Uiso       1.00
       C81          C  0.4734528  0.0677793  0.0000000    0.00000       Uiso       1.00
       C82          C  0.4836891  0.0993411  0.0000000    0.00000       Uiso       1.00
       H49          H  0.4699273  0.1193494  0.0000000    0.00000       Uiso       1.00
       C83          C  0.4296907  0.0271208  0.0000000    0.00000       Uiso       1.00
       C84          C  0.3980625  0.0166161  0.0000000    0.00000       Uiso       1.00
       H50          H  0.3781170  0.0304777  0.0000000    0.00000       Uiso       1.00
       C85          C  0.4411455  0.0585999  0.0000000    0.00000       Uiso       1.00
       C86          C  0.4177046  0.0826279  0.0000000    0.00000       Uiso       1.00
       C87          C  0.3699980  0.1301561  0.0000000    0.00000       Uiso       1.00
       C88          C  0.2239317  0.7261317  0.0000000    0.00000       Uiso       1.00
       C89          C  0.1988046  0.7010446  0.0000000    0.00000       Uiso       1.00
        N3          N  0.1527022  0.6532962  0.0000000    0.00000       Uiso       1.00
       C90          C  0.7414786  0.2825956  0.0000000    0.00000       Uiso       1.00
       C91          C  0.8339217  0.2905218  0.0000000    0.00000       Uiso       1.00
       C92          C  0.8433063  0.2581178  0.0000000    0.00000       Uiso       1.00
       C93          C  0.8215389  0.2328252  0.0000000    0.00000       Uiso       1.00
       C94          C  0.8566226  0.3154038  0.0000000    0.00000       Uiso       1.00
       H51          H  0.8669016  0.2522812  0.0000000    0.00000       Uiso       1.00
       H52          H  0.8299701  0.2100785  0.0000000    0.00000       Uiso       1.00
        O7          O  0.8856967  0.3084596  0.0000000    0.00000       Uiso       1.00
       C95          C  0.2130096  0.7611224  0.0000000    0.00000       Uiso       1.00
       C96          C  0.2082727  0.6687344  0.0000000    0.00000       Uiso       1.00
       C97          C  0.2409748  0.6609375  0.0000000    0.00000       Uiso       1.00
       C98          C  0.2648746  0.6843057  0.0000000    0.00000       Uiso       1.00
       C99          C  0.1843021  0.6451028  0.0000000    0.00000       Uiso       1.00
       H53          H  0.2479923  0.6376552  0.0000000    0.00000       Uiso       1.00
       H54          H  0.2875919  0.6759917  0.0000000    0.00000       Uiso       1.00
        O8          O  0.1923564  0.6163225  0.0000000    0.00000       Uiso       1.00
      C100          C  0.5265466  0.9322200  0.0000000    0.00000       Uiso       1.00
      C101          C  0.5163102  0.9006582  0.0000000    0.00000       Uiso       1.00
       H55          H  0.5300720  0.8806499  0.0000000    0.00000       Uiso       1.00
      C102          C  0.5703086  0.9728786  0.0000000    0.00000       Uiso       1.00
      C103          C  0.6019368  0.9833832  0.0000000    0.00000       Uiso       1.00
       H56          H  0.6218824  0.9695216  0.0000000    0.00000       Uiso       1.00
      C104          C  0.5588539  0.9413995  0.0000000    0.00000       Uiso       1.00
      C105          C  0.5822948  0.9173715  0.0000000    0.00000       Uiso       1.00
      C106          C  0.6300012  0.8698433  0.0000000    0.00000       Uiso       1.00
      C107          C  0.7760676  0.2738676  0.0000000    0.00000       Uiso       1.00
      C108          C  0.8011947  0.2989547  0.0000000    0.00000       Uiso       1.00
        N4          N  0.8472971  0.3467031  0.0000000    0.00000       Uiso       1.00
      C109          C  0.2825956  0.7414786  0.0000000    0.00000       Uiso       1.00
      C110          C  0.2905218  0.8339217  0.0000000    0.00000       Uiso       1.00
      C111          C  0.2581178  0.8433063  0.0000000    0.00000       Uiso       1.00
      C112          C  0.2328252  0.8215389  0.0000000    0.00000       Uiso       1.00
      C113          C  0.3154038  0.8566226  0.0000000    0.00000       Uiso       1.00
       H57          H  0.2522812  0.8669016  0.0000000    0.00000       Uiso       1.00
       H58          H  0.2100785  0.8299701  0.0000000    0.00000       Uiso       1.00
        O9          O  0.3084596  0.8856967  0.0000000    0.00000       Uiso       1.00
      C114          C  0.7611224  0.2130096  0.0000000    0.00000       Uiso       1.00
      C115          C  0.6687344  0.2082727  0.0000000    0.00000       Uiso       1.00
      C116          C  0.6609375  0.2409748  0.0000000    0.00000       Uiso       1.00
      C117          C  0.6843057  0.2648746  0.0000000    0.00000       Uiso       1.00
      C118          C  0.6451028  0.1843021  0.0000000    0.00000       Uiso       1.00
       H59          H  0.6376552  0.2479923  0.0000000    0.00000       Uiso       1.00
       H60          H  0.6759917  0.2875919  0.0000000    0.00000       Uiso       1.00
       O10          O  0.6163225  0.1923564  0.0000000    0.00000       Uiso       1.00
      C119          C  0.9322200  0.5265466  0.0000000    0.00000       Uiso       1.00
      C120          C  0.9006582  0.5163102  0.0000000    0.00000       Uiso       1.00
       H61          H  0.8806499  0.5300720  0.0000000    0.00000       Uiso       1.00
      C121          C  0.9728786  0.5703086  0.0000000    0.00000       Uiso       1.00
      C122          C  0.9833832  0.6019368  0.0000000    0.00000       Uiso       1.00
       H62          H  0.9695216  0.6218824  0.0000000    0.00000       Uiso       1.00
      C123          C  0.9413995  0.5588539  0.0000000    0.00000       Uiso       1.00
      C124          C  0.9173715  0.5822948  0.0000000    0.00000       Uiso       1.00
      C125          C  0.8698433  0.6300012  0.0000000    0.00000       Uiso       1.00
      C126          C  0.2738676  0.7760676  0.0000000    0.00000       Uiso       1.00
      C127          C  0.2989547  0.8011947  0.0000000    0.00000       Uiso       1.00
        N5          N  0.3467031  0.8472971  0.0000000    0.00000       Uiso       1.00
      C128          C  0.7174038  0.2585207  0.0000000    0.00000       Uiso       1.00
      C129          C  0.7094775  0.1660777  0.0000000    0.00000       Uiso       1.00
      C130          C  0.7418816  0.1566930  0.0000000    0.00000       Uiso       1.00
      C131          C  0.7671741  0.1784604  0.0000000    0.00000       Uiso       1.00
      C132          C  0.6845956  0.1433767  0.0000000    0.00000       Uiso       1.00
       H63          H  0.7477182  0.1330978  0.0000000    0.00000       Uiso       1.00
       H64          H  0.7899209  0.1700293  0.0000000    0.00000       Uiso       1.00
       O11          O  0.6915398  0.1143026  0.0000000    0.00000       Uiso       1.00
      C133          C  0.2388769  0.7869897  0.0000000    0.00000       Uiso       1.00
      C134          C  0.3312649  0.7917266  0.0000000    0.00000       Uiso       1.00
      C135          C  0.3390618  0.7590245  0.0000000    0.00000       Uiso       1.00
      C136          C  0.3156936  0.7351247  0.0000000    0.00000       Uiso       1.00
      C137          C  0.3548965  0.8156973  0.0000000    0.00000       Uiso       1.00
       H65          H  0.3623441  0.7520071  0.0000000    0.00000       Uiso       1.00
       H66          H  0.3240077  0.7124075  0.0000000    0.00000       Uiso       1.00
       O12          O  0.3836769  0.8076430  0.0000000    0.00000       Uiso       1.00
      C138          C  0.0677793  0.4734528  0.0000000    0.00000       Uiso       1.00
      C139          C  0.0993411  0.4836891  0.0000000    0.00000       Uiso       1.00
       H67          H  0.1193494  0.4699273  0.0000000    0.00000       Uiso       1.00
      C140          C  0.0271208  0.4296907  0.0000000    0.00000       Uiso       1.00
      C141          C  0.0166161  0.3980625  0.0000000    0.00000       Uiso       1.00
       H68          H  0.0304777  0.3781170  0.0000000    0.00000       Uiso       1.00
      C142          C  0.0585999  0.4411455  0.0000000    0.00000       Uiso       1.00
      C143          C  0.0826279  0.4177046  0.0000000    0.00000       Uiso       1.00
      C144          C  0.1301561  0.3699980  0.0000000    0.00000       Uiso       1.00
      C145          C  0.7261317  0.2239317  0.0000000    0.00000       Uiso       1.00
      C146          C  0.7010446  0.1988046  0.0000000    0.00000       Uiso       1.00
        N6          N  0.6532962  0.1527022  0.0000000    0.00000       Uiso       1.00
      C147          C  0.7414786  0.7174038  0.0000000    0.00000       Uiso       1.00
      C148          C  0.8339217  0.7094775  0.0000000    0.00000       Uiso       1.00
      C149          C  0.8433063  0.7418816  0.0000000    0.00000       Uiso       1.00
      C150          C  0.8215389  0.7671741  0.0000000    0.00000       Uiso       1.00
      C151          C  0.8566226  0.6845956  0.0000000    0.00000       Uiso       1.00
       H69          H  0.8669016  0.7477182  0.0000000    0.00000       Uiso       1.00
       H70          H  0.8299701  0.7899209  0.0000000    0.00000       Uiso       1.00
       O13          O  0.8856967  0.6915398  0.0000000    0.00000       Uiso       1.00
      C152          C  0.2130096  0.2388769  0.0000000    0.00000       Uiso       1.00
      C153          C  0.2082727  0.3312649  0.0000000    0.00000       Uiso       1.00
      C154          C  0.2409748  0.3390618  0.0000000    0.00000       Uiso       1.00
      C155          C  0.2648746  0.3156936  0.0000000    0.00000       Uiso       1.00
      C156          C  0.1843021  0.3548965  0.0000000    0.00000       Uiso       1.00
       H71          H  0.2479923  0.3623441  0.0000000    0.00000       Uiso       1.00
       H72          H  0.2875919  0.3240077  0.0000000    0.00000       Uiso       1.00
       O14          O  0.1923564  0.3836769  0.0000000    0.00000       Uiso       1.00
      C157          C  0.5265466  0.0677793  0.0000000    0.00000       Uiso       1.00
      C158          C  0.5163102  0.0993411  0.0000000    0.00000       Uiso       1.00
       H73          H  0.5300720  0.1193494  0.0000000    0.00000       Uiso       1.00
      C159          C  0.5703086  0.0271208  0.0000000    0.00000       Uiso       1.00
      C160          C  0.6019368  0.0166161  0.0000000    0.00000       Uiso       1.00
       H74          H  0.6218824  0.0304777  0.0000000    0.00000       Uiso       1.00
      C161          C  0.5588539  0.0585999  0.0000000    0.00000       Uiso       1.00
      C162          C  0.5822948  0.0826279  0.0000000    0.00000       Uiso       1.00
      C163          C  0.6300012  0.1301561  0.0000000    0.00000       Uiso       1.00
      C164          C  0.7760676  0.7261317  0.0000000    0.00000       Uiso       1.00
      C165          C  0.8011947  0.7010446  0.0000000    0.00000       Uiso       1.00
        N7          N  0.8472971  0.6532962  0.0000000    0.00000       Uiso       1.00
      C166          C  0.2585207  0.2825956  0.0000000    0.00000       Uiso       1.00
      C167          C  0.1660777  0.2905218  0.0000000    0.00000       Uiso       1.00
      C168          C  0.1566930  0.2581178  0.0000000    0.00000       Uiso       1.00
      C169          C  0.1784604  0.2328252  0.0000000    0.00000       Uiso       1.00
      C170          C  0.1433767  0.3154038  0.0000000    0.00000       Uiso       1.00
       H75          H  0.1330978  0.2522812  0.0000000    0.00000       Uiso       1.00
       H76          H  0.1700293  0.2100785  0.0000000    0.00000       Uiso       1.00
       O15          O  0.1143026  0.3084596  0.0000000    0.00000       Uiso       1.00
      C171          C  0.7869897  0.7611224  0.0000000    0.00000       Uiso       1.00
      C172          C  0.7917266  0.6687344  0.0000000    0.00000       Uiso       1.00
      C173          C  0.7590245  0.6609375  0.0000000    0.00000       Uiso       1.00
      C174          C  0.7351247  0.6843057  0.0000000    0.00000       Uiso       1.00
      C175          C  0.8156973  0.6451028  0.0000000    0.00000       Uiso       1.00
       H77          H  0.7520071  0.6376552  0.0000000    0.00000       Uiso       1.00
       H78          H  0.7124075  0.6759917  0.0000000    0.00000       Uiso       1.00
       O16          O  0.8076430  0.6163225  0.0000000    0.00000       Uiso       1.00
      C176          C  0.4734528  0.9322200  0.0000000    0.00000       Uiso       1.00
      C177          C  0.4836891  0.9006582  0.0000000    0.00000       Uiso       1.00
       H79          H  0.4699273  0.8806499  0.0000000    0.00000       Uiso       1.00
      C178          C  0.4296907  0.9728786  0.0000000    0.00000       Uiso       1.00
      C179          C  0.3980625  0.9833832  0.0000000    0.00000       Uiso       1.00
       H80          H  0.3781170  0.9695216  0.0000000    0.00000       Uiso       1.00
      C180          C  0.4411455  0.9413995  0.0000000    0.00000       Uiso       1.00
      C181          C  0.4177046  0.9173715  0.0000000    0.00000       Uiso       1.00
      C182          C  0.3699980  0.8698433  0.0000000    0.00000       Uiso       1.00
      C183          C  0.2239317  0.2738676  0.0000000    0.00000       Uiso       1.00
      C184          C  0.1988046  0.2989547  0.0000000    0.00000       Uiso       1.00
        N8          N  0.1527022  0.3467031  0.0000000    0.00000       Uiso       1.00
        N9          N  0.0000000  0.5590883  0.0000000    0.00000       Uiso       1.00
       N10          N  0.0000000  0.4409111  0.0000000    0.00000       Uiso       1.00
       N11          N  0.4409111  0.0000000  0.0000000    0.00000       Uiso       1.00
       N12          N  0.5590883  0.0000000  0.0000000    0.00000       Uiso       1.00
       N13          N  0.0495451  0.4999997  0.0000000    0.00000       Uiso       1.00
       H81          H  0.0265012  0.4999997  0.0000000    0.00000       Uiso       1.00
       N14          N  0.9504542  0.4999997  0.0000000    0.00000       Uiso       1.00
       H82          H  0.9734981  0.4999997  0.0000000    0.00000       Uiso       1.00
       N15          N  0.4999997  0.0495451  0.0000000    0.00000       Uiso       1.00
       H83          H  0.4999997  0.0265012  0.0000000    0.00000       Uiso       1.00
       N16          N  0.4999997  0.9504542  0.0000000    0.00000       Uiso       1.00
       H84          H  0.4999997  0.9734981  0.0000000    0.00000       Uiso       1.00
