data_Por-COF-jmca
_audit_creation_date              0000-00-00
_audit_creation_method            'LanYouShi'
_symmetry_space_group_name_H-M    'P1'
_cell_length_a                    25.4169998
_cell_length_b                    12.3769999
_cell_length_c                    25.4169998
_cell_angle_alpha                 90.0000000
_cell_angle_beta                  90.0000000
_cell_angle_gamma                 90.0000000
loop_
_atom_site_label
_atom_site_type_symbol
_atom_site_fract_x
_atom_site_fract_y
_atom_site_fract_z
_atom_site_U_iso_or_equiv
_atom_site_adp_type
_atom_site_occupancy
        C1          C  0.0080000  0.2360000  0.3060000    0.00000       Uiso       1.00
        C2          C  0.9920000  0.2360000  0.6940000    0.00000       Uiso       1.00
        C3          C  0.9920000  0.7640000  0.6940000    0.00000       Uiso       1.00
        C4          C  0.0080000  0.7640000  0.3060000    0.00000       Uiso       1.00
        C5          C  0.0340000  0.3230000  0.2830000    0.00000       Uiso       1.00
        C6          C  0.9660000  0.3230000  0.7170000    0.00000       Uiso       1.00
        C7          C  0.9660000  0.6770000  0.7170000    0.00000       Uiso       1.00
        C8          C  0.0340000  0.6770000  0.2830000    0.00000       Uiso       1.00
        C9          C  0.0330000  0.3390000  0.2280000    0.00000       Uiso       1.00
       C10          C  0.9670000  0.3390000  0.7720000    0.00000       Uiso       1.00
       C11          C  0.9670000  0.6610000  0.7720000    0.00000       Uiso       1.00
       C12          C  0.0330000  0.6610000  0.2280000    0.00000       Uiso       1.00
       C13          C  0.0447163  0.1444810  0.4655184    0.00000       Uiso       1.00
       C14          C  0.9552838  0.1444810  0.5344817    0.00000       Uiso       1.00
       C15          C  0.9552838  0.8555190  0.5344817    0.00000       Uiso       1.00
       C16          C  0.0447163  0.8555190  0.4655184    0.00000       Uiso       1.00
       C17          C  0.0090000  0.2650000  0.1950000    0.00000       Uiso       1.00
       C18          C  0.9910001  0.2650000  0.8050000    0.00000       Uiso       1.00
       C19          C  0.9910001  0.7350001  0.8050000    0.00000       Uiso       1.00
       C20          C  0.0090000  0.7350001  0.1950000    0.00000       Uiso       1.00
       C21          C  0.0070000  0.2820000  0.1370000    0.00000       Uiso       1.00
       C22          C  0.9930000  0.2820000  0.8630000    0.00000       Uiso       1.00
       C23          C  0.9930000  0.7180001  0.8630000    0.00000       Uiso       1.00
       C24          C  0.0070000  0.7180001  0.1370000    0.00000       Uiso       1.00
       C25          C  0.0158856  0.2216749  0.3586893    0.00000       Uiso       1.00
       C26          C  0.9841145  0.2216749  0.6413108    0.00000       Uiso       1.00
       C27          C  0.9841145  0.7783251  0.6413108    0.00000       Uiso       1.00
       C28          C  0.0158856  0.7783251  0.3586893    0.00000       Uiso       1.00
       C29          C  0.9830000  0.1690000  0.2180000    0.00000       Uiso       1.00
       C30          C  0.0170000  0.1690000  0.7820001    0.00000       Uiso       1.00
       C31          C  0.0170000  0.8310000  0.7820001    0.00000       Uiso       1.00
       C32          C  0.9830000  0.8310000  0.2180000    0.00000       Uiso       1.00
       C33          C  0.9800000  0.1570000  0.2720000    0.00000       Uiso       1.00
       C34          C  0.0200000  0.1570000  0.7280000    0.00000       Uiso       1.00
       C35          C  0.0200000  0.8430001  0.7280000    0.00000       Uiso       1.00
       C36          C  0.9800000  0.8430001  0.2720000    0.00000       Uiso       1.00
        N1          N  0.9795493  0.1695599  0.3942412    0.00000       Uiso       1.00
        N2          N  0.0204507  0.1695599  0.6057588    0.00000       Uiso       1.00
        N3          N  0.0204507  0.8304402  0.6057588    0.00000       Uiso       1.00
        N4          N  0.9795493  0.8304402  0.3942412    0.00000       Uiso       1.00
       C37          C  0.9464416  0.1384242  0.4821729    0.00000       Uiso       1.00
       C38          C  0.0535584  0.1384242  0.5178271    0.00000       Uiso       1.00
       C39          C  0.0535584  0.8615758  0.5178271    0.00000       Uiso       1.00
       C40          C  0.9464416  0.8615758  0.4821729    0.00000       Uiso       1.00
       C41          C  0.9901271  0.1486982  0.4439606    0.00000       Uiso       1.00
       C42          C  0.0098730  0.1486982  0.5560394    0.00000       Uiso       1.00
       C43          C  0.0098730  0.8513018  0.5560394    0.00000       Uiso       1.00
       C44          C  0.9901271  0.8513018  0.4439606    0.00000       Uiso       1.00
        N5          N  0.9450000  0.2870000  0.0590000    0.00000       Uiso       1.00
        N6          N  0.0550000  0.2870000  0.9410000    0.00000       Uiso       1.00
        N7          N  0.0550000  0.7130001  0.9410000    0.00000       Uiso       1.00
        N8          N  0.9450000  0.7130001  0.0590000    0.00000       Uiso       1.00
       C45          C  0.9550000  0.2880000  0.1120000    0.00000       Uiso       1.00
       C46          C  0.0450000  0.2880000  0.8880000    0.00000       Uiso       1.00
       C47          C  0.0450000  0.7120000  0.8880000    0.00000       Uiso       1.00
       C48          C  0.9550000  0.7120000  0.1120000    0.00000       Uiso       1.00
       C49          C  0.9080000  0.2900000  0.1400000    0.00000       Uiso       1.00
       C50          C  0.0920000  0.2900000  0.8600000    0.00000       Uiso       1.00
       C51          C  0.0920000  0.7100000  0.8600000    0.00000       Uiso       1.00
       C52          C  0.9080000  0.7100000  0.1400000    0.00000       Uiso       1.00
       C53          C  0.8920000  0.2860000  0.0550000    0.00000       Uiso       1.00
       C54          C  0.1080000  0.2860000  0.9450001    0.00000       Uiso       1.00
       C55          C  0.1080000  0.7140000  0.9450001    0.00000       Uiso       1.00
       C56          C  0.8920000  0.7140000  0.0550000    0.00000       Uiso       1.00
       C57          C  0.8680000  0.2860000  0.1040000    0.00000       Uiso       1.00
       C58          C  0.1320000  0.2860000  0.8960000    0.00000       Uiso       1.00
       C59          C  0.1320000  0.7140000  0.8960000    0.00000       Uiso       1.00
       C60          C  0.8680000  0.7140000  0.1040000    0.00000       Uiso       1.00
        H1          H  0.0544576  0.3810630  0.3074794    0.00000       Uiso       1.00
        H2          H  0.9455425  0.3810630  0.6925206    0.00000       Uiso       1.00
        H3          H  0.9455425  0.6189370  0.6925206    0.00000       Uiso       1.00
        H4          H  0.0544576  0.6189370  0.3074794    0.00000       Uiso       1.00
        H5          H  0.0521455  0.4092416  0.2116837    0.00000       Uiso       1.00
        H6          H  0.9478545  0.4092416  0.7883162    0.00000       Uiso       1.00
        H7          H  0.9478545  0.5907585  0.7883162    0.00000       Uiso       1.00
        H8          H  0.0521455  0.5907585  0.2116837    0.00000       Uiso       1.00
        H9          H  0.0778121  0.1410769  0.4388299    0.00000       Uiso       1.00
       H10          H  0.9221879  0.1410769  0.5611701    0.00000       Uiso       1.00
       H11          H  0.9221879  0.8589231  0.5611701    0.00000       Uiso       1.00
       H12          H  0.0778121  0.8589231  0.4388299    0.00000       Uiso       1.00
       H13          H  0.9641431  0.1101275  0.1927481    0.00000       Uiso       1.00
       H14          H  0.0358569  0.1101275  0.8072519    0.00000       Uiso       1.00
       H15          H  0.0358569  0.8898726  0.8072519    0.00000       Uiso       1.00
       H16          H  0.9641431  0.8898726  0.1927481    0.00000       Uiso       1.00
       H17          H  0.9584498  0.0903592  0.2887727    0.00000       Uiso       1.00
       H18          H  0.0415502  0.0903592  0.7112273    0.00000       Uiso       1.00
       H19          H  0.0415502  0.9096409  0.7112273    0.00000       Uiso       1.00
       H20          H  0.9584498  0.9096409  0.2887727    0.00000       Uiso       1.00
       H21          H  0.9065239  0.1337763  0.4675445    0.00000       Uiso       1.00
       H22          H  0.0934761  0.1337763  0.5324556    0.00000       Uiso       1.00
       H23          H  0.0934761  0.8662237  0.5324556    0.00000       Uiso       1.00
       H24          H  0.9065239  0.8662237  0.4675445    0.00000       Uiso       1.00
       H25          H  0.9028524  0.2918297  0.1822274    0.00000       Uiso       1.00
       H26          H  0.0971477  0.2918297  0.8177726    0.00000       Uiso       1.00
       H27          H  0.0971477  0.7081702  0.8177726    0.00000       Uiso       1.00
       H28          H  0.9028524  0.7081702  0.1822274    0.00000       Uiso       1.00
       H29          H  0.8267236  0.2819791  0.1138485    0.00000       Uiso       1.00
       H30          H  0.1732764  0.2819791  0.8861515    0.00000       Uiso       1.00
       H31          H  0.1732764  0.7180209  0.8861515    0.00000       Uiso       1.00
       H32          H  0.8267236  0.7180209  0.1138485    0.00000       Uiso       1.00
       H33          H  0.9705716  0.7192361  0.9719336    0.00000       Uiso       1.00
       H34          H  0.0294284  0.7192361  0.0280664    0.00000       Uiso       1.00
       H35          H  0.0294284  0.2807639  0.0280664    0.00000       Uiso       1.00
       H36          H  0.9705716  0.2807639  0.9719336    0.00000       Uiso       1.00
       C61          C  0.3060000  0.2360000  0.9920000    0.00000       Uiso       1.00
       C62          C  0.6940000  0.2360000  0.0080000    0.00000       Uiso       1.00
       C63          C  0.6940000  0.7640000  0.0080000    0.00000       Uiso       1.00
       C64          C  0.3060000  0.7640000  0.9920000    0.00000       Uiso       1.00
       C65          C  0.2830000  0.3230000  0.9660000    0.00000       Uiso       1.00
       C66          C  0.7170000  0.3230000  0.0340000    0.00000       Uiso       1.00
       C67          C  0.7170000  0.6770000  0.0340000    0.00000       Uiso       1.00
       C68          C  0.2830000  0.6770000  0.9660000    0.00000       Uiso       1.00
       C69          C  0.2280000  0.3390000  0.9670000    0.00000       Uiso       1.00
       C70          C  0.7720000  0.3390000  0.0330000    0.00000       Uiso       1.00
       C71          C  0.7720000  0.6610000  0.0330000    0.00000       Uiso       1.00
       C72          C  0.2280000  0.6610000  0.9670000    0.00000       Uiso       1.00
       C73          C  0.4672974  0.1358105  0.9558865    0.00000       Uiso       1.00
       C74          C  0.5327026  0.1358105  0.0441134    0.00000       Uiso       1.00
       C75          C  0.5327026  0.8641895  0.0441134    0.00000       Uiso       1.00
       C76          C  0.4672974  0.8641895  0.9558865    0.00000       Uiso       1.00
       C77          C  0.1950000  0.2650000  0.9910001    0.00000       Uiso       1.00
       C78          C  0.8050000  0.2650000  0.0090000    0.00000       Uiso       1.00
       C79          C  0.8050000  0.7350001  0.0090000    0.00000       Uiso       1.00
       C80          C  0.1950000  0.7350001  0.9910001    0.00000       Uiso       1.00
       C81          C  0.1370000  0.2820000  0.9930000    0.00000       Uiso       1.00
       C82          C  0.8630000  0.2820000  0.0070000    0.00000       Uiso       1.00
       C83          C  0.8630000  0.7180001  0.0070000    0.00000       Uiso       1.00
       C84          C  0.1370000  0.7180001  0.9930000    0.00000       Uiso       1.00
       C85          C  0.3633350  0.2225122  0.9871811    0.00000       Uiso       1.00
       C86          C  0.6366650  0.2225122  0.0128189    0.00000       Uiso       1.00
       C87          C  0.6366650  0.7774878  0.0128189    0.00000       Uiso       1.00
       C88          C  0.3633350  0.7774878  0.9871811    0.00000       Uiso       1.00
       C89          C  0.2180000  0.1690000  0.0170000    0.00000       Uiso       1.00
       C90          C  0.7820001  0.1690000  0.9830000    0.00000       Uiso       1.00
       C91          C  0.7820001  0.8310000  0.9830000    0.00000       Uiso       1.00
       C92          C  0.2180000  0.8310000  0.0170000    0.00000       Uiso       1.00
       C93          C  0.2720000  0.1570000  0.0200000    0.00000       Uiso       1.00
       C94          C  0.7280000  0.1570000  0.9800000    0.00000       Uiso       1.00
       C95          C  0.7280000  0.8430001  0.9800000    0.00000       Uiso       1.00
       C96          C  0.2720000  0.8430001  0.0200000    0.00000       Uiso       1.00
        N9          N  0.3894507  0.1509251  0.0138075    0.00000       Uiso       1.00
       N10          N  0.6105493  0.1509251  0.9861925    0.00000       Uiso       1.00
       N11          N  0.6105493  0.8490749  0.9861925    0.00000       Uiso       1.00
       N12          N  0.3894507  0.8490749  0.0138075    0.00000       Uiso       1.00
       C97          C  0.4779877  0.1348233  0.0505342    0.00000       Uiso       1.00
       C98          C  0.5220122  0.1348233  0.9494659    0.00000       Uiso       1.00
       C99          C  0.5220122  0.8651767  0.9494659    0.00000       Uiso       1.00
      C100          C  0.4779877  0.8651767  0.0505342    0.00000       Uiso       1.00
      C101          C  0.4450659  0.1383091  0.0065822    0.00000       Uiso       1.00
      C102          C  0.5549341  0.1383091  0.9934178    0.00000       Uiso       1.00
      C103          C  0.5549341  0.8616909  0.9934178    0.00000       Uiso       1.00
      C104          C  0.4450659  0.8616909  0.0065822    0.00000       Uiso       1.00
       N13          N  0.0590000  0.2870000  0.0550000    0.00000       Uiso       1.00
       N14          N  0.9410000  0.2870000  0.9450000    0.00000       Uiso       1.00
       N15          N  0.9410000  0.7130001  0.9450000    0.00000       Uiso       1.00
       N16          N  0.0590000  0.7130001  0.0550000    0.00000       Uiso       1.00
      C105          C  0.1120000  0.2880000  0.0450000    0.00000       Uiso       1.00
      C106          C  0.8880000  0.2880000  0.9550000    0.00000       Uiso       1.00
      C107          C  0.8880000  0.7120000  0.9550000    0.00000       Uiso       1.00
      C108          C  0.1120000  0.7120000  0.0450000    0.00000       Uiso       1.00
      C109          C  0.1400000  0.2900000  0.0920000    0.00000       Uiso       1.00
      C110          C  0.8600000  0.2900000  0.9080000    0.00000       Uiso       1.00
      C111          C  0.8600000  0.7100000  0.9080000    0.00000       Uiso       1.00
      C112          C  0.1400000  0.7100000  0.0920000    0.00000       Uiso       1.00
      C113          C  0.0550000  0.2860000  0.1080000    0.00000       Uiso       1.00
      C114          C  0.9450001  0.2860000  0.8920000    0.00000       Uiso       1.00
      C115          C  0.9450001  0.7140000  0.8920000    0.00000       Uiso       1.00
      C116          C  0.0550000  0.7140000  0.1080000    0.00000       Uiso       1.00
      C117          C  0.1040000  0.2860000  0.1320000    0.00000       Uiso       1.00
      C118          C  0.8960000  0.2860000  0.8680000    0.00000       Uiso       1.00
      C119          C  0.8960000  0.7140000  0.8680000    0.00000       Uiso       1.00
      C120          C  0.1040000  0.7140000  0.1320000    0.00000       Uiso       1.00
       H37          H  0.3074794  0.3810631  0.9455425    0.00000       Uiso       1.00
       H38          H  0.6925206  0.3810631  0.0544575    0.00000       Uiso       1.00
       H39          H  0.6925206  0.6189370  0.0544575    0.00000       Uiso       1.00
       H40          H  0.3074794  0.6189370  0.9455425    0.00000       Uiso       1.00
       H41          H  0.2116840  0.4092419  0.9478547    0.00000       Uiso       1.00
       H42          H  0.7883161  0.4092419  0.0521453    0.00000       Uiso       1.00
       H43          H  0.7883161  0.5907581  0.0521453    0.00000       Uiso       1.00
       H44          H  0.2116840  0.5907581  0.9478547    0.00000       Uiso       1.00
       H45          H  0.4421110  0.1357050  0.9215754    0.00000       Uiso       1.00
       H46          H  0.5578890  0.1357050  0.0784246    0.00000       Uiso       1.00
       H47          H  0.5578890  0.8642950  0.0784246    0.00000       Uiso       1.00
       H48          H  0.4421110  0.8642950  0.9215754    0.00000       Uiso       1.00
       H49          H  0.1927479  0.1101288  0.0358577    0.00000       Uiso       1.00
       H50          H  0.8072521  0.1101288  0.9641423    0.00000       Uiso       1.00
       H51          H  0.8072521  0.8898712  0.9641423    0.00000       Uiso       1.00
       H52          H  0.1927479  0.8898712  0.0358577    0.00000       Uiso       1.00
       H53          H  0.2887727  0.0903595  0.0415504    0.00000       Uiso       1.00
       H54          H  0.7112273  0.0903595  0.9584495    0.00000       Uiso       1.00
       H55          H  0.7112273  0.9096406  0.9584495    0.00000       Uiso       1.00
       H56          H  0.2887727  0.9096406  0.0415504    0.00000       Uiso       1.00
       H57          H  0.4610016  0.1354048  0.0895618    0.00000       Uiso       1.00
       H58          H  0.5389984  0.1354048  0.9104382    0.00000       Uiso       1.00
       H59          H  0.5389984  0.8645952  0.9104382    0.00000       Uiso       1.00
       H60          H  0.4610016  0.8645952  0.0895618    0.00000       Uiso       1.00
       H61          H  0.1822271  0.2918297  0.0971474    0.00000       Uiso       1.00
       H62          H  0.8177729  0.2918297  0.9028527    0.00000       Uiso       1.00
       H63          H  0.8177729  0.7081704  0.9028527    0.00000       Uiso       1.00
       H64          H  0.1822271  0.7081704  0.0971474    0.00000       Uiso       1.00
       H65          H  0.1138482  0.2819787  0.1732761    0.00000       Uiso       1.00
       H66          H  0.8861519  0.2819787  0.8267239    0.00000       Uiso       1.00
       H67          H  0.8861519  0.7180213  0.8267239    0.00000       Uiso       1.00
       H68          H  0.1138482  0.7180213  0.1732761    0.00000       Uiso       1.00
       H69          H  0.3841473  0.7236862  0.9606208    0.00000       Uiso       1.00
       H70          H  0.0455472  0.7283421  0.3775263    0.00000       Uiso       1.00
       H71          H  0.6158527  0.7236862  0.0393792    0.00000       Uiso       1.00
       H72          H  0.9544528  0.7283421  0.6224737    0.00000       Uiso       1.00
       H73          H  0.6158527  0.2763138  0.0393792    0.00000       Uiso       1.00
       H74          H  0.9544528  0.2716580  0.6224737    0.00000       Uiso       1.00
       H75          H  0.3841473  0.2763138  0.9606208    0.00000       Uiso       1.00
       H76          H  0.0455472  0.2716580  0.3775263    0.00000       Uiso       1.00
