data_crystal
 
_cell_length_a    25.41700
_cell_length_b    12.37700
_cell_length_c    25.41700
_cell_angle_alpha 90.00000
_cell_angle_beta  90.00000
_cell_angle_gamma 90.00000
 
_symmetry_space_group_name_Hall 'P 1'
_symmetry_space_group_name_H-M  'P 1'
 
loop_
_symmetry_equiv_pos_as_xyz
 'x,y,z' 
 
loop_
_atom_site_label
_atom_site_type_symbol
_atom_site_fract_x
_atom_site_fract_y
_atom_site_fract_z
_atom_site_charge
C          C       0.00800   0.23600   0.30600   0.0000000000
C          C       0.99200   0.23600   0.69400   0.0000000000
C          C       0.99200   0.76400   0.69400   0.0000000000
C          C       0.00800   0.76400   0.30600   0.0000000000
C          C       0.03400   0.32300   0.28300   0.0000000000
C          C       0.96600   0.32300   0.71700   0.0000000000
C          C       0.96600   0.67700   0.71700   0.0000000000
C          C       0.03400   0.67700   0.28300   0.0000000000
C          C       0.03300   0.33900   0.22800   0.0000000000
C          C       0.96700   0.33900   0.77200   0.0000000000
C          C       0.96700   0.66100   0.77200   0.0000000000
C          C       0.03300   0.66100   0.22800   0.0000000000
C          C       0.04472   0.14448   0.46552   0.0000000000
C          C       0.95528   0.14448   0.53448   0.0000000000
C          C       0.95528   0.85552   0.53448   0.0000000000
C          C       0.04472   0.85552   0.46552   0.0000000000
C          C       0.00900   0.26500   0.19500   0.0000000000
C          C       0.99100   0.26500   0.80500   0.0000000000
C          C       0.99100   0.73500   0.80500   0.0000000000
C          C       0.00900   0.73500   0.19500   0.0000000000
C          C       0.00700   0.28200   0.13700   0.0000000000
C          C       0.99300   0.28200   0.86300   0.0000000000
C          C       0.99300   0.71800   0.86300   0.0000000000
C          C       0.00700   0.71800   0.13700   0.0000000000
C          C       0.01589   0.22167   0.35869   0.0000000000
C          C       0.98411   0.22167   0.64131   0.0000000000
C          C       0.98411   0.77833   0.64131   0.0000000000
C          C       0.01589   0.77833   0.35869   0.0000000000
C          C       0.98300   0.16900   0.21800   0.0000000000
C          C       0.01700   0.16900   0.78200   0.0000000000
C          C       0.01700   0.83100   0.78200   0.0000000000
C          C       0.98300   0.83100   0.21800   0.0000000000
C          C       0.98000   0.15700   0.27200   0.0000000000
C          C       0.02000   0.15700   0.72800   0.0000000000
C          C       0.02000   0.84300   0.72800   0.0000000000
C          C       0.98000   0.84300   0.27200   0.0000000000
N          N       0.97955   0.16956   0.39424   0.0000000000
N          N       0.02045   0.16956   0.60576   0.0000000000
N          N       0.02045   0.83044   0.60576   0.0000000000
N          N       0.97955   0.83044   0.39424   0.0000000000
C          C       0.94644   0.13842   0.48217   0.0000000000
C          C       0.05356   0.13842   0.51783   0.0000000000
C          C       0.05356   0.86158   0.51783   0.0000000000
C          C       0.94644   0.86158   0.48217   0.0000000000
C          C       0.99013   0.14870   0.44396   0.0000000000
C          C       0.00987   0.14870   0.55604   0.0000000000
C          C       0.00987   0.85130   0.55604   0.0000000000
C          C       0.99013   0.85130   0.44396   0.0000000000
N          N       0.94500   0.28700   0.05900   0.0000000000
N          N       0.05500   0.28700   0.94100   0.0000000000
N          N       0.05500   0.71300   0.94100   0.0000000000
N          N       0.94500   0.71300   0.05900   0.0000000000
C          C       0.95500   0.28800   0.11200   0.0000000000
C          C       0.04500   0.28800   0.88800   0.0000000000
C          C       0.04500   0.71200   0.88800   0.0000000000
C          C       0.95500   0.71200   0.11200   0.0000000000
C          C       0.90800   0.29000   0.14000   0.0000000000
C          C       0.09200   0.29000   0.86000   0.0000000000
C          C       0.09200   0.71000   0.86000   0.0000000000
C          C       0.90800   0.71000   0.14000   0.0000000000
C          C       0.89200   0.28600   0.05500   0.0000000000
C          C       0.10800   0.28600   0.94500   0.0000000000
C          C       0.10800   0.71400   0.94500   0.0000000000
C          C       0.89200   0.71400   0.05500   0.0000000000
C          C       0.86800   0.28600   0.10400   0.0000000000
C          C       0.13200   0.28600   0.89600   0.0000000000
C          C       0.13200   0.71400   0.89600   0.0000000000
C          C       0.86800   0.71400   0.10400   0.0000000000
H          H       0.05446   0.38106   0.30748   0.0000000000
H          H       0.94554   0.38106   0.69252   0.0000000000
H          H       0.94554   0.61894   0.69252   0.0000000000
H          H       0.05446   0.61894   0.30748   0.0000000000
H          H       0.05215   0.40924   0.21168   0.0000000000
H          H       0.94785   0.40924   0.78832   0.0000000000
H          H       0.94785   0.59076   0.78832   0.0000000000
H          H       0.05215   0.59076   0.21168   0.0000000000
H          H       0.07781   0.14108   0.43883   0.0000000000
H          H       0.92219   0.14108   0.56117   0.0000000000
H          H       0.92219   0.85892   0.56117   0.0000000000
H          H       0.07781   0.85892   0.43883   0.0000000000
H          H       0.96414   0.11013   0.19275   0.0000000000
H          H       0.03586   0.11013   0.80725   0.0000000000
H          H       0.03586   0.88987   0.80725   0.0000000000
H          H       0.96414   0.88987   0.19275   0.0000000000
H          H       0.95845   0.09036   0.28877   0.0000000000
H          H       0.04155   0.09036   0.71123   0.0000000000
H          H       0.04155   0.90964   0.71123   0.0000000000
H          H       0.95845   0.90964   0.28877   0.0000000000
H          H       0.90652   0.13378   0.46754   0.0000000000
H          H       0.09348   0.13378   0.53246   0.0000000000
H          H       0.09348   0.86622   0.53246   0.0000000000
H          H       0.90652   0.86622   0.46754   0.0000000000
H          H       0.90285   0.29183   0.18223   0.0000000000
H          H       0.09715   0.29183   0.81777   0.0000000000
H          H       0.09715   0.70817   0.81777   0.0000000000
H          H       0.90285   0.70817   0.18223   0.0000000000
H          H       0.82672   0.28198   0.11385   0.0000000000
H          H       0.17328   0.28198   0.88615   0.0000000000
H          H       0.17328   0.71802   0.88615   0.0000000000
H          H       0.82672   0.71802   0.11385   0.0000000000
H          H       0.97057   0.71924   0.97193   0.0000000000
H          H       0.02943   0.71924   0.02807   0.0000000000
H          H       0.02943   0.28076   0.02807   0.0000000000
H          H       0.97057   0.28076   0.97193   0.0000000000
C          C       0.30600   0.23600   0.99200   0.0000000000
C          C       0.69400   0.23600   0.00800   0.0000000000
C          C       0.69400   0.76400   0.00800   0.0000000000
C          C       0.30600   0.76400   0.99200   0.0000000000
C          C       0.28300   0.32300   0.96600   0.0000000000
C          C       0.71700   0.32300   0.03400   0.0000000000
C          C       0.71700   0.67700   0.03400   0.0000000000
C          C       0.28300   0.67700   0.96600   0.0000000000
C          C       0.22800   0.33900   0.96700   0.0000000000
C          C       0.77200   0.33900   0.03300   0.0000000000
C          C       0.77200   0.66100   0.03300   0.0000000000
C          C       0.22800   0.66100   0.96700   0.0000000000
C          C       0.46730   0.13581   0.95589   0.0000000000
C          C       0.53270   0.13581   0.04411   0.0000000000
C          C       0.53270   0.86419   0.04411   0.0000000000
C          C       0.46730   0.86419   0.95589   0.0000000000
C          C       0.19500   0.26500   0.99100   0.0000000000
C          C       0.80500   0.26500   0.00900   0.0000000000
C          C       0.80500   0.73500   0.00900   0.0000000000
C          C       0.19500   0.73500   0.99100   0.0000000000
C          C       0.13700   0.28200   0.99300   0.0000000000
C          C       0.86300   0.28200   0.00700   0.0000000000
C          C       0.86300   0.71800   0.00700   0.0000000000
C          C       0.13700   0.71800   0.99300   0.0000000000
C          C       0.36334   0.22251   0.98718   0.0000000000
C          C       0.63667   0.22251   0.01282   0.0000000000
C          C       0.63667   0.77749   0.01282   0.0000000000
C          C       0.36334   0.77749   0.98718   0.0000000000
C          C       0.21800   0.16900   0.01700   0.0000000000
C          C       0.78200   0.16900   0.98300   0.0000000000
C          C       0.78200   0.83100   0.98300   0.0000000000
C          C       0.21800   0.83100   0.01700   0.0000000000
C          C       0.27200   0.15700   0.02000   0.0000000000
C          C       0.72800   0.15700   0.98000   0.0000000000
C          C       0.72800   0.84300   0.98000   0.0000000000
C          C       0.27200   0.84300   0.02000   0.0000000000
N          N       0.38945   0.15093   0.01381   0.0000000000
N          N       0.61055   0.15093   0.98619   0.0000000000
N          N       0.61055   0.84907   0.98619   0.0000000000
N          N       0.38945   0.84907   0.01381   0.0000000000
C          C       0.47799   0.13482   0.05053   0.0000000000
C          C       0.52201   0.13482   0.94947   0.0000000000
C          C       0.52201   0.86518   0.94947   0.0000000000
C          C       0.47799   0.86518   0.05053   0.0000000000
C          C       0.44507   0.13831   0.00658   0.0000000000
C          C       0.55493   0.13831   0.99342   0.0000000000
C          C       0.55493   0.86169   0.99342   0.0000000000
C          C       0.44507   0.86169   0.00658   0.0000000000
N          N       0.05900   0.28700   0.05500   0.0000000000
N          N       0.94100   0.28700   0.94500   0.0000000000
N          N       0.94100   0.71300   0.94500   0.0000000000
N          N       0.05900   0.71300   0.05500   0.0000000000
C          C       0.11200   0.28800   0.04500   0.0000000000
C          C       0.88800   0.28800   0.95500   0.0000000000
C          C       0.88800   0.71200   0.95500   0.0000000000
C          C       0.11200   0.71200   0.04500   0.0000000000
C          C       0.14000   0.29000   0.09200   0.0000000000
C          C       0.86000   0.29000   0.90800   0.0000000000
C          C       0.86000   0.71000   0.90800   0.0000000000
C          C       0.14000   0.71000   0.09200   0.0000000000
C          C       0.05500   0.28600   0.10800   0.0000000000
C          C       0.94500   0.28600   0.89200   0.0000000000
C          C       0.94500   0.71400   0.89200   0.0000000000
C          C       0.05500   0.71400   0.10800   0.0000000000
C          C       0.10400   0.28600   0.13200   0.0000000000
C          C       0.89600   0.28600   0.86800   0.0000000000
C          C       0.89600   0.71400   0.86800   0.0000000000
C          C       0.10400   0.71400   0.13200   0.0000000000
H          H       0.30748   0.38106   0.94554   0.0000000000
H          H       0.69252   0.38106   0.05446   0.0000000000
H          H       0.69252   0.61894   0.05446   0.0000000000
H          H       0.30748   0.61894   0.94554   0.0000000000
H          H       0.21168   0.40924   0.94785   0.0000000000
H          H       0.78832   0.40924   0.05215   0.0000000000
H          H       0.78832   0.59076   0.05215   0.0000000000
H          H       0.21168   0.59076   0.94785   0.0000000000
H          H       0.44211   0.13570   0.92158   0.0000000000
H          H       0.55789   0.13570   0.07842   0.0000000000
H          H       0.55789   0.86430   0.07842   0.0000000000
H          H       0.44211   0.86430   0.92158   0.0000000000
H          H       0.19275   0.11013   0.03586   0.0000000000
H          H       0.80725   0.11013   0.96414   0.0000000000
H          H       0.80725   0.88987   0.96414   0.0000000000
H          H       0.19275   0.88987   0.03586   0.0000000000
H          H       0.28877   0.09036   0.04155   0.0000000000
H          H       0.71123   0.09036   0.95845   0.0000000000
H          H       0.71123   0.90964   0.95845   0.0000000000
H          H       0.28877   0.90964   0.04155   0.0000000000
H          H       0.46100   0.13540   0.08956   0.0000000000
H          H       0.53900   0.13540   0.91044   0.0000000000
H          H       0.53900   0.86460   0.91044   0.0000000000
H          H       0.46100   0.86460   0.08956   0.0000000000
H          H       0.18223   0.29183   0.09715   0.0000000000
H          H       0.81777   0.29183   0.90285   0.0000000000
H          H       0.81777   0.70817   0.90285   0.0000000000
H          H       0.18223   0.70817   0.09715   0.0000000000
H          H       0.11385   0.28198   0.17328   0.0000000000
H          H       0.88615   0.28198   0.82672   0.0000000000
H          H       0.88615   0.71802   0.82672   0.0000000000
H          H       0.11385   0.71802   0.17328   0.0000000000
H          H       0.38415   0.72369   0.96062   0.0000000000
H          H       0.04555   0.72834   0.37753   0.0000000000
H          H       0.61585   0.72369   0.03938   0.0000000000
H          H       0.95445   0.72834   0.62247   0.0000000000
H          H       0.61585   0.27631   0.03938   0.0000000000
H          H       0.95445   0.27166   0.62247   0.0000000000
H          H       0.38415   0.27631   0.96062   0.0000000000
H          H       0.04555   0.27166   0.37753   0.0000000000
