data_POR-COF
_audit_creation_date              0000-00-00
_audit_creation_method            'LanYouShi'
_symmetry_space_group_name_H-M    'P1'
_cell_length_a                    24.6882992
_cell_length_b                    28.4706993
_cell_length_c                    6.9355001
_cell_angle_alpha                 90.0000000
_cell_angle_beta                  90.0000000
_cell_angle_gamma                 90.0000000
loop_
_atom_site_label
_atom_site_type_symbol
_atom_site_fract_x
_atom_site_fract_y
_atom_site_fract_z
_atom_site_U_iso_or_equiv
_atom_site_adp_type
_atom_site_occupancy
        O1          N  0.7569041  0.2276247  0.5000000    0.00000       Uiso       1.00
         O          O  0.8035930  0.2150373  0.5000000    0.00000       Uiso       1.00
        O1          N  0.2430959  0.7723753  0.5000000    0.00000       Uiso       1.00
         O          O  0.1964070  0.7849627  0.5000000    0.00000       Uiso       1.00
        O1          N  0.2430959  0.2276247  0.5000000    0.00000       Uiso       1.00
         O          O  0.1964070  0.2150373  0.5000000    0.00000       Uiso       1.00
        O1          N  0.7569041  0.7723753  0.5000000    0.00000       Uiso       1.00
         O          O  0.8035930  0.7849627  0.5000000    0.00000       Uiso       1.00
        N1          N  0.5000000  0.0744847  0.5000000    0.00000       Uiso       1.00
        N1          N  0.5000000  0.9255154  0.5000000    0.00000       Uiso       1.00
        H5          H  0.5000000  0.0404894  0.5000000    0.00000       Uiso       1.00
        H5          H  0.5000000  0.9595107  0.5000000    0.00000       Uiso       1.00
        C1          C  0.4547239  0.1011908  0.5000000    0.00000       Uiso       1.00
        C2          C  0.4547239  0.8988093  0.5000000    0.00000       Uiso       1.00
        C3          C  0.4721267  0.1478834  0.5000000    0.00000       Uiso       1.00
        C4          C  0.4721267  0.8521166  0.5000000    0.00000       Uiso       1.00
        H1          H  0.4485420  0.1773914  0.5000000    0.00000       Uiso       1.00
        H2          H  0.4485420  0.8226086  0.5000000    0.00000       Uiso       1.00
        N1          N  0.9144872  0.5000000  0.5000000    0.00000       Uiso       1.00
        C5          C  0.8830732  0.5389704  0.5000000    0.00000       Uiso       1.00
        C6          C  0.8830732  0.4610296  0.5000000    0.00000       Uiso       1.00
        C7          C  0.8291637  0.5241255  0.5000000    0.00000       Uiso       1.00
        C8          C  0.8291637  0.4758746  0.5000000    0.00000       Uiso       1.00
        H3          H  0.7951861  0.5446411  0.5000000    0.00000       Uiso       1.00
        H4          H  0.7951861  0.4553589  0.5000000    0.00000       Uiso       1.00
        C9          C  0.4000444  0.0864008  0.5000000    0.00000       Uiso       1.00
       C10          C  0.4000444  0.9135993  0.5000000    0.00000       Uiso       1.00
       C11          C  0.3597294  0.1214893  0.5000000    0.00000       Uiso       1.00
       C12          C  0.3597294  0.8785107  0.5000000    0.00000       Uiso       1.00
       C13          C  0.3395452  0.1392539  0.3238899    0.00000       Uiso       1.00
       C14          C  0.3395452  0.8607461  0.6761100    0.00000       Uiso       1.00
       C15          C  0.3395452  0.1392539  0.6761100    0.00000       Uiso       1.00
       C16          C  0.3395452  0.8607461  0.3238899    0.00000       Uiso       1.00
        H5          H  0.3536245  0.1266580  0.1950653    0.00000       Uiso       1.00
        H6          H  0.3536245  0.8733420  0.8049347    0.00000       Uiso       1.00
        H7          H  0.3536245  0.1266580  0.8049347    0.00000       Uiso       1.00
        H8          H  0.3536245  0.8733420  0.1950653    0.00000       Uiso       1.00
       C17          C  0.2999339  0.1746956  0.3240229    0.00000       Uiso       1.00
       C18          C  0.2999339  0.8253044  0.6759770    0.00000       Uiso       1.00
       C19          C  0.2999339  0.1746956  0.6759770    0.00000       Uiso       1.00
       C20          C  0.2999339  0.8253044  0.3240229    0.00000       Uiso       1.00
        H9          H  0.2857500  0.1874949  0.1957828    0.00000       Uiso       1.00
       H10          H  0.2857500  0.8125051  0.8042172    0.00000       Uiso       1.00
       H11          H  0.2857500  0.1874949  0.8042172    0.00000       Uiso       1.00
       H12          H  0.2857500  0.8125051  0.1957828    0.00000       Uiso       1.00
       C21          C  0.2801602  0.1926477  0.5000000    0.00000       Uiso       1.00
       C22          C  0.2801602  0.8073524  0.5000000    0.00000       Uiso       1.00
        C1          C  0.5452761  0.8988093  0.5000000    0.00000       Uiso       1.00
        C2          C  0.5452761  0.1011908  0.5000000    0.00000       Uiso       1.00
        C3          C  0.5278733  0.8521166  0.5000000    0.00000       Uiso       1.00
        C4          C  0.5278733  0.1478834  0.5000000    0.00000       Uiso       1.00
        H1          H  0.5514580  0.8226086  0.5000000    0.00000       Uiso       1.00
        H2          H  0.5514580  0.1773914  0.5000000    0.00000       Uiso       1.00
        N1          N  0.0855128  0.5000000  0.5000000    0.00000       Uiso       1.00
        C5          C  0.1169269  0.4610296  0.5000000    0.00000       Uiso       1.00
        C6          C  0.1169269  0.5389704  0.5000000    0.00000       Uiso       1.00
        C7          C  0.1708363  0.4758746  0.5000000    0.00000       Uiso       1.00
        C8          C  0.1708363  0.5241255  0.5000000    0.00000       Uiso       1.00
        H3          H  0.2048139  0.4553589  0.5000000    0.00000       Uiso       1.00
        H4          H  0.2048139  0.5446411  0.5000000    0.00000       Uiso       1.00
        C9          C  0.5999556  0.9135993  0.5000000    0.00000       Uiso       1.00
       C10          C  0.5999556  0.0864008  0.5000000    0.00000       Uiso       1.00
       C11          C  0.6402707  0.8785107  0.5000000    0.00000       Uiso       1.00
       C12          C  0.6402707  0.1214893  0.5000000    0.00000       Uiso       1.00
       C13          C  0.6604549  0.8607461  0.3238899    0.00000       Uiso       1.00
       C14          C  0.6604549  0.1392539  0.6761100    0.00000       Uiso       1.00
       C15          C  0.6604549  0.8607461  0.6761100    0.00000       Uiso       1.00
       C16          C  0.6604549  0.1392539  0.3238899    0.00000       Uiso       1.00
        H5          H  0.6463755  0.8733420  0.1950653    0.00000       Uiso       1.00
        H6          H  0.6463755  0.1266580  0.8049347    0.00000       Uiso       1.00
        H7          H  0.6463755  0.8733420  0.8049347    0.00000       Uiso       1.00
        H8          H  0.6463755  0.1266580  0.1950653    0.00000       Uiso       1.00
       C17          C  0.7000661  0.8253044  0.3240229    0.00000       Uiso       1.00
       C18          C  0.7000661  0.1746956  0.6759770    0.00000       Uiso       1.00
       C19          C  0.7000661  0.8253044  0.6759770    0.00000       Uiso       1.00
       C20          C  0.7000661  0.1746956  0.3240229    0.00000       Uiso       1.00
        H9          H  0.7142501  0.8125051  0.1957828    0.00000       Uiso       1.00
       H10          H  0.7142501  0.1874949  0.8042172    0.00000       Uiso       1.00
       H11          H  0.7142501  0.8125051  0.8042172    0.00000       Uiso       1.00
       H12          H  0.7142501  0.1874949  0.1957828    0.00000       Uiso       1.00
       C21          C  0.7198399  0.8073524  0.5000000    0.00000       Uiso       1.00
       C22          C  0.7198399  0.1926477  0.5000000    0.00000       Uiso       1.00
        O1          N  0.2569041  0.7276247  0.5000000    0.00000       Uiso       1.00
         O          O  0.3035930  0.7150373  0.5000000    0.00000       Uiso       1.00
        N1          N  0.0000000  0.5744847  0.5000000    0.00000       Uiso       1.00
        H5          H  0.0000000  0.5404894  0.5000000    0.00000       Uiso       1.00
        C1          C -0.0452761  0.6011907  0.5000000    0.00000       Uiso       1.00
        C2          C -0.0278733  0.6478835  0.5000000    0.00000       Uiso       1.00
        H1          H -0.0514580  0.6773914  0.5000000    0.00000       Uiso       1.00
        C3          C -0.0999556  0.5864009  0.5000000    0.00000       Uiso       1.00
        C4          C -0.1402706  0.6214893  0.5000000    0.00000       Uiso       1.00
        C5          C -0.1604549  0.6392539  0.3238899    0.00000       Uiso       1.00
        C6          C -0.1604549  0.6392539  0.6761100    0.00000       Uiso       1.00
        H2          H -0.1463755  0.6266580  0.1950653    0.00000       Uiso       1.00
        H3          H -0.1463755  0.6266580  0.8049347    0.00000       Uiso       1.00
        C7          C -0.2000661  0.6746957  0.3240229    0.00000       Uiso       1.00
        C8          C -0.2000661  0.6746957  0.6759770    0.00000       Uiso       1.00
        H4          H -0.2142500  0.6874949  0.1957828    0.00000       Uiso       1.00
        H5          H -0.2142500  0.6874949  0.8042172    0.00000       Uiso       1.00
        C9          C -0.2198398  0.6926478  0.5000000    0.00000       Uiso       1.00
        C1          C  0.0452761  0.6011907  0.5000000    0.00000       Uiso       1.00
        C2          C  0.0278733  0.6478835  0.5000000    0.00000       Uiso       1.00
        H1          H  0.0514580  0.6773914  0.5000000    0.00000       Uiso       1.00
        C3          C  0.0999556  0.5864009  0.5000000    0.00000       Uiso       1.00
        C4          C  0.1402706  0.6214893  0.5000000    0.00000       Uiso       1.00
        C5          C  0.1604549  0.6392539  0.6761100    0.00000       Uiso       1.00
        C6          C  0.1604549  0.6392539  0.3238899    0.00000       Uiso       1.00
        H2          H  0.1463755  0.6266580  0.8049347    0.00000       Uiso       1.00
        H3          H  0.1463755  0.6266580  0.1950653    0.00000       Uiso       1.00
        C7          C  0.2000661  0.6746957  0.6759770    0.00000       Uiso       1.00
        C8          C  0.2000661  0.6746957  0.3240229    0.00000       Uiso       1.00
        H4          H  0.2142500  0.6874949  0.8042172    0.00000       Uiso       1.00
        H5          H  0.2142500  0.6874949  0.1957828    0.00000       Uiso       1.00
        C9          C  0.2198398  0.6926478  0.5000000    0.00000       Uiso       1.00
        O1          N  0.7430960  0.2723753  0.5000000    0.00000       Uiso       1.00
         O          O  0.6964071  0.2849627  0.5000000    0.00000       Uiso       1.00
        N1          N  0.5855128  0.0000000  0.5000000    0.00000       Uiso       1.00
        C1          C  0.6169268 -0.0389704  0.5000000    0.00000       Uiso       1.00
        C2          C  0.6169268  0.0389704  0.5000000    0.00000       Uiso       1.00
        C3          C  0.6708363 -0.0241254  0.5000000    0.00000       Uiso       1.00
        C4          C  0.6708363  0.0241254  0.5000000    0.00000       Uiso       1.00
        H1          H  0.7048140 -0.0446411  0.5000000    0.00000       Uiso       1.00
        H2          H  0.7048140  0.0446411  0.5000000    0.00000       Uiso       1.00
        O1          N  0.7430960  0.7276247  0.5000000    0.00000       Uiso       1.00
         O          O  0.6964071  0.7150373  0.5000000    0.00000       Uiso       1.00
        O1          N  0.2569041  0.2723753  0.5000000    0.00000       Uiso       1.00
         O          O  0.3035930  0.2849627  0.5000000    0.00000       Uiso       1.00
        N1          N  0.0000000  0.4255153  0.5000000    0.00000       Uiso       1.00
        H5          H  0.0000000  0.4595107  0.5000000    0.00000       Uiso       1.00
        C1          C  0.0452761  0.3988092  0.5000000    0.00000       Uiso       1.00
        C2          C  0.0278733  0.3521166  0.5000000    0.00000       Uiso       1.00
        H1          H  0.0514580  0.3226086  0.5000000    0.00000       Uiso       1.00
        C3          C  0.0999556  0.4135992  0.5000000    0.00000       Uiso       1.00
        C4          C  0.1402706  0.3785107  0.5000000    0.00000       Uiso       1.00
        C5          C  0.1604549  0.3607461  0.3238899    0.00000       Uiso       1.00
        C6          C  0.1604549  0.3607461  0.6761100    0.00000       Uiso       1.00
        H2          H  0.1463755  0.3733420  0.1950653    0.00000       Uiso       1.00
        H3          H  0.1463755  0.3733420  0.8049347    0.00000       Uiso       1.00
        C7          C  0.2000661  0.3253044  0.3240229    0.00000       Uiso       1.00
        C8          C  0.2000661  0.3253044  0.6759770    0.00000       Uiso       1.00
        H4          H  0.2142500  0.3125051  0.1957828    0.00000       Uiso       1.00
        H5          H  0.2142500  0.3125051  0.8042172    0.00000       Uiso       1.00
        C9          C  0.2198398  0.3073523  0.5000000    0.00000       Uiso       1.00
        C1          C -0.0452761  0.3988092  0.5000000    0.00000       Uiso       1.00
        C2          C -0.0278733  0.3521166  0.5000000    0.00000       Uiso       1.00
        H1          H -0.0514580  0.3226086  0.5000000    0.00000       Uiso       1.00
        N1          N  0.4144872  0.0000000  0.5000000    0.00000       Uiso       1.00
        C3          C  0.3830732  0.0389704  0.5000000    0.00000       Uiso       1.00
        C4          C  0.3830732 -0.0389704  0.5000000    0.00000       Uiso       1.00
        C5          C  0.3291637  0.0241254  0.5000000    0.00000       Uiso       1.00
        C6          C  0.3291637 -0.0241254  0.5000000    0.00000       Uiso       1.00
        H2          H  0.2951861  0.0446411  0.5000000    0.00000       Uiso       1.00
        H3          H  0.2951861 -0.0446411  0.5000000    0.00000       Uiso       1.00
        C7          C -0.0999556  0.4135992  0.5000000    0.00000       Uiso       1.00
        C8          C -0.1402706  0.3785107  0.5000000    0.00000       Uiso       1.00
        C9          C -0.1604549  0.3607461  0.6761100    0.00000       Uiso       1.00
       C10          C -0.1604549  0.3607461  0.3238899    0.00000       Uiso       1.00
        H4          H -0.1463755  0.3733420  0.8049347    0.00000       Uiso       1.00
        H5          H -0.1463755  0.3733420  0.1950653    0.00000       Uiso       1.00
       C11          C -0.2000661  0.3253044  0.6759770    0.00000       Uiso       1.00
       C12          C -0.2000661  0.3253044  0.3240229    0.00000       Uiso       1.00
        H6          H -0.2142500  0.3125051  0.8042172    0.00000       Uiso       1.00
        H7          H -0.2142500  0.3125051  0.1957828    0.00000       Uiso       1.00
       C13          C -0.2198398  0.3073523  0.5000000    0.00000       Uiso       1.00
