data_Py-1P-COF
_audit_creation_date              0000-00-00
_audit_creation_method            'LanYouShi'
_symmetry_space_group_name_H-M    'P1'
_cell_length_a                    32.5698013
_cell_length_b                    35.8554993
_cell_length_c                    4.0200000
_cell_angle_alpha                 90.0000000
_cell_angle_beta                  90.0000000
_cell_angle_gamma                 90.0000000
loop_
_atom_site_label
_atom_site_type_symbol
_atom_site_fract_x
_atom_site_fract_y
_atom_site_fract_z
_atom_site_U_iso_or_equiv
_atom_site_adp_type
_atom_site_occupancy
        C1          C  0.5442404  0.5343457 -0.2165969    0.00000       Uiso       1.00
        C2          C  0.4785659  0.5671186 -0.2779785    0.00000       Uiso       1.00
        C3          C  0.4123957  0.5347472 -0.1640346    0.00000       Uiso       1.00
        C4          C  0.3874818  0.5673772 -0.1426976    0.00000       Uiso       1.00
        C5          C  0.3489177  0.5692535 -0.3065956    0.00000       Uiso       1.00
        C6          C  0.3235286  0.6008563 -0.2808583    0.00000       Uiso       1.00
        C7          C  0.3361500  0.6322783 -0.0971842    0.00000       Uiso       1.00
        C8          C  0.3745557  0.6310080  0.0656427    0.00000       Uiso       1.00
        C9          C  0.3991888  0.5988610  0.0477927    0.00000       Uiso       1.00
        H1          H  0.4645355  0.5920309 -0.3215525    0.00000       Uiso       1.00
        H2          H  0.3388297  0.5475018 -0.4497828    0.00000       Uiso       1.00
        H3          H  0.2957842  0.6008576 -0.4006955    0.00000       Uiso       1.00
        H4          H  0.3848381  0.6530825  0.2026874    0.00000       Uiso       1.00
        H5          H  0.4259579  0.5987231  0.1790976    0.00000       Uiso       1.00
       C10          C  0.2183407  0.7776743  0.0038537    0.00000       Uiso       1.00
       C11          C  0.2123257  0.7417126 -0.1323305    0.00000       Uiso       1.00
       C12          C  0.2433927  0.7145134 -0.1172960    0.00000       Uiso       1.00
       C13          C  0.2816584  0.7223259  0.0344687    0.00000       Uiso       1.00
       C14          C  0.2876734  0.7582876  0.1706520    0.00000       Uiso       1.00
       C15          C  0.2566067  0.7854868  0.1556143    0.00000       Uiso       1.00
        H6          H  0.1851365  0.7348761 -0.2448021    0.00000       Uiso       1.00
        H7          H  0.2376029  0.6889027 -0.2192447    0.00000       Uiso       1.00
        H8          H  0.3148625  0.7651240  0.2831265    0.00000       Uiso       1.00
        H9          H  0.2623967  0.8110977  0.2575598    0.00000       Uiso       1.00
       C16          C  0.1866488  0.8043580 -0.0152285    0.00000       Uiso       1.00
        N1          N  0.1900703  0.8383964  0.1272660    0.00000       Uiso       1.00
       H10          H  0.8397015  0.2023521 -0.1398643    0.00000       Uiso       1.00
       C17          C  0.9557605  0.0343459  0.2549948    0.00000       Uiso       1.00
       C18          C  0.0214344  0.0671188  0.3163729    0.00000       Uiso       1.00
       C19          C  0.0876047  0.0347473  0.2024321    0.00000       Uiso       1.00
       C20          C  0.1125184  0.0673773  0.1810865    0.00000       Uiso       1.00
       C21          C  0.1510829  0.0692544  0.3449783    0.00000       Uiso       1.00
       C22          C  0.1764719  0.1008571  0.3192246    0.00000       Uiso       1.00
       C23          C  0.1638500  0.1322782  0.1355406    0.00000       Uiso       1.00
       C24          C  0.1254437  0.1310074 -0.0272760    0.00000       Uiso       1.00
       C25          C  0.1008109  0.0988604 -0.0094107    0.00000       Uiso       1.00
       H11          H  0.0354648  0.0920312  0.3599432    0.00000       Uiso       1.00
       H12          H  0.1611712  0.0475033  0.4881723    0.00000       Uiso       1.00
       H13          H  0.2042166  0.1008591  0.4390568    0.00000       Uiso       1.00
       H14          H  0.1151609  0.1530813 -0.1643253    0.00000       Uiso       1.00
       H15          H  0.0740415  0.0987220 -0.1407106    0.00000       Uiso       1.00
       C26          C  0.3133502  0.3043576  0.0535603    0.00000       Uiso       1.00
        N2          N  0.3099296  0.3383963 -0.0889285    0.00000       Uiso       1.00
       H16          H  0.6603012  0.7023527  0.1782028    0.00000       Uiso       1.00
       C27          C  0.4557602  0.4656540 -0.2165969    0.00000       Uiso       1.00
       C28          C  0.5214347  0.4328811 -0.2779785    0.00000       Uiso       1.00
       C29          C  0.5876049  0.4652525 -0.1640346    0.00000       Uiso       1.00
       C30          C  0.6125188  0.4326226 -0.1426976    0.00000       Uiso       1.00
       C31          C  0.6510829  0.4307462 -0.3065956    0.00000       Uiso       1.00
       C32          C  0.6764719  0.3991434 -0.2808583    0.00000       Uiso       1.00
       C33          C  0.6638506  0.3677214 -0.0971842    0.00000       Uiso       1.00
       C34          C  0.6254449  0.3689916  0.0656427    0.00000       Uiso       1.00
       C35          C  0.6008118  0.4011387  0.0477927    0.00000       Uiso       1.00
       H17          H  0.5354651  0.4079688 -0.3215525    0.00000       Uiso       1.00
       H18          H  0.6611710  0.4524979 -0.4497828    0.00000       Uiso       1.00
       H19          H  0.7042164  0.3991421 -0.4006955    0.00000       Uiso       1.00
       H20          H  0.6151626  0.3469172  0.2026874    0.00000       Uiso       1.00
       H21          H  0.5740427  0.4012766  0.1790976    0.00000       Uiso       1.00
       C36          C  0.7816599  0.2223254  0.0038537    0.00000       Uiso       1.00
       C37          C  0.7876749  0.2582872 -0.1323305    0.00000       Uiso       1.00
       C38          C  0.7566079  0.2854863 -0.1172960    0.00000       Uiso       1.00
       C39          C  0.7183422  0.2776738  0.0344687    0.00000       Uiso       1.00
       C40          C  0.7123271  0.2417121  0.1706520    0.00000       Uiso       1.00
       C41          C  0.7433939  0.2145129  0.1556143    0.00000       Uiso       1.00
       H22          H  0.8148641  0.2651236 -0.2448021    0.00000       Uiso       1.00
       H23          H  0.7623976  0.3110970 -0.2192447    0.00000       Uiso       1.00
       H24          H  0.6851381  0.2348757  0.2831265    0.00000       Uiso       1.00
       H25          H  0.7376039  0.1889021  0.2575598    0.00000       Uiso       1.00
       C42          C  0.8133518  0.1956417 -0.0152285    0.00000       Uiso       1.00
        N3          N  0.8099303  0.1616033  0.1272660    0.00000       Uiso       1.00
       H26          H  0.1602991  0.7976476 -0.1398643    0.00000       Uiso       1.00
       C43          C  0.0442401  0.9656538  0.2549948    0.00000       Uiso       1.00
       C44          C  0.9785662  0.9328809  0.3163729    0.00000       Uiso       1.00
       C45          C  0.9123960  0.9652523  0.2024321    0.00000       Uiso       1.00
       C46          C  0.8874822  0.9326224  0.1810865    0.00000       Uiso       1.00
       C47          C  0.8489177  0.9307453  0.3449783    0.00000       Uiso       1.00
       C48          C  0.8235288  0.8991425  0.3192246    0.00000       Uiso       1.00
       C49          C  0.8361506  0.8677215  0.1355406    0.00000       Uiso       1.00
       C50          C  0.8745569  0.8689923 -0.0272760    0.00000       Uiso       1.00
       C51          C  0.8991897  0.9011393 -0.0094107    0.00000       Uiso       1.00
       H27          H  0.9645358  0.9079685  0.3599432    0.00000       Uiso       1.00
       H28          H  0.8388294  0.9524963  0.4881723    0.00000       Uiso       1.00
       H29          H  0.7957840  0.8991406  0.4390568    0.00000       Uiso       1.00
       H30          H  0.8848398  0.8469183 -0.1643253    0.00000       Uiso       1.00
       H31          H  0.9259591  0.9012777 -0.1407106    0.00000       Uiso       1.00
       C52          C  0.6866503  0.6956421  0.0535603    0.00000       Uiso       1.00
        N4          N  0.6900710  0.6616034 -0.0889285    0.00000       Uiso       1.00
       H32          H  0.3396994  0.2976470  0.1782028    0.00000       Uiso       1.00
       C53          C  0.5442404  0.4656540 -0.2165969    0.00000       Uiso       1.00
       C54          C  0.4785659  0.4328811 -0.2779785    0.00000       Uiso       1.00
       C55          C  0.4123957  0.4652525 -0.1640346    0.00000       Uiso       1.00
       C56          C  0.3874818  0.4326226 -0.1426976    0.00000       Uiso       1.00
       C57          C  0.3489177  0.4307462 -0.3065956    0.00000       Uiso       1.00
       C58          C  0.3235286  0.3991434 -0.2808583    0.00000       Uiso       1.00
       C59          C  0.3361500  0.3677214 -0.0971842    0.00000       Uiso       1.00
       C60          C  0.3745557  0.3689916  0.0656427    0.00000       Uiso       1.00
       C61          C  0.3991888  0.4011387  0.0477927    0.00000       Uiso       1.00
       H33          H  0.4645355  0.4079688 -0.3215525    0.00000       Uiso       1.00
       H34          H  0.3388297  0.4524979 -0.4497828    0.00000       Uiso       1.00
       H35          H  0.2957842  0.3991421 -0.4006955    0.00000       Uiso       1.00
       H36          H  0.3848381  0.3469172  0.2026874    0.00000       Uiso       1.00
       H37          H  0.4259579  0.4012766  0.1790976    0.00000       Uiso       1.00
       C62          C  0.2183407  0.2223254  0.0038537    0.00000       Uiso       1.00
       C63          C  0.2123257  0.2582872 -0.1323305    0.00000       Uiso       1.00
       C64          C  0.2433927  0.2854863 -0.1172960    0.00000       Uiso       1.00
       C65          C  0.2816584  0.2776738  0.0344687    0.00000       Uiso       1.00
       C66          C  0.2876734  0.2417121  0.1706520    0.00000       Uiso       1.00
       C67          C  0.2566067  0.2145129  0.1556143    0.00000       Uiso       1.00
       H38          H  0.1851365  0.2651236 -0.2448021    0.00000       Uiso       1.00
       H39          H  0.2376029  0.3110970 -0.2192447    0.00000       Uiso       1.00
       H40          H  0.3148625  0.2348757  0.2831265    0.00000       Uiso       1.00
       H41          H  0.2623967  0.1889021  0.2575598    0.00000       Uiso       1.00
       C68          C  0.1866488  0.1956417 -0.0152285    0.00000       Uiso       1.00
        N5          N  0.1900703  0.1616033  0.1272660    0.00000       Uiso       1.00
       H42          H  0.8397015  0.7976476 -0.1398643    0.00000       Uiso       1.00
       C69          C  0.9557605  0.9656538  0.2549948    0.00000       Uiso       1.00
       C70          C  0.0214344  0.9328809  0.3163729    0.00000       Uiso       1.00
       C71          C  0.0876047  0.9652523  0.2024321    0.00000       Uiso       1.00
       C72          C  0.1125184  0.9326224  0.1810865    0.00000       Uiso       1.00
       C73          C  0.1510829  0.9307453  0.3449783    0.00000       Uiso       1.00
       C74          C  0.1764719  0.8991425  0.3192246    0.00000       Uiso       1.00
       C75          C  0.1638500  0.8677215  0.1355406    0.00000       Uiso       1.00
       C76          C  0.1254437  0.8689923 -0.0272760    0.00000       Uiso       1.00
       C77          C  0.1008109  0.9011393 -0.0094107    0.00000       Uiso       1.00
       H43          H  0.0354648  0.9079685  0.3599432    0.00000       Uiso       1.00
       H44          H  0.1611712  0.9524963  0.4881723    0.00000       Uiso       1.00
       H45          H  0.2042166  0.8991406  0.4390568    0.00000       Uiso       1.00
       H46          H  0.1151609  0.8469183 -0.1643253    0.00000       Uiso       1.00
       H47          H  0.0740415  0.9012777 -0.1407106    0.00000       Uiso       1.00
       C78          C  0.3133502  0.6956421  0.0535603    0.00000       Uiso       1.00
        N6          N  0.3099296  0.6616034 -0.0889285    0.00000       Uiso       1.00
       H48          H  0.6603012  0.2976470  0.1782028    0.00000       Uiso       1.00
       C79          C  0.4557602  0.5343457 -0.2165969    0.00000       Uiso       1.00
       C80          C  0.5214347  0.5671186 -0.2779785    0.00000       Uiso       1.00
       C81          C  0.5876049  0.5347472 -0.1640346    0.00000       Uiso       1.00
       C82          C  0.6125188  0.5673772 -0.1426976    0.00000       Uiso       1.00
       C83          C  0.6510829  0.5692535 -0.3065956    0.00000       Uiso       1.00
       C84          C  0.6764719  0.6008563 -0.2808583    0.00000       Uiso       1.00
       C85          C  0.6638506  0.6322783 -0.0971842    0.00000       Uiso       1.00
       C86          C  0.6254449  0.6310080  0.0656427    0.00000       Uiso       1.00
       C87          C  0.6008118  0.5988610  0.0477927    0.00000       Uiso       1.00
       H49          H  0.5354651  0.5920309 -0.3215525    0.00000       Uiso       1.00
       H50          H  0.6611710  0.5475018 -0.4497828    0.00000       Uiso       1.00
       H51          H  0.7042164  0.6008576 -0.4006955    0.00000       Uiso       1.00
       H52          H  0.6151626  0.6530825  0.2026874    0.00000       Uiso       1.00
       H53          H  0.5740427  0.5987231  0.1790976    0.00000       Uiso       1.00
       C88          C  0.7816599  0.7776743  0.0038537    0.00000       Uiso       1.00
       C89          C  0.7876749  0.7417126 -0.1323305    0.00000       Uiso       1.00
       C90          C  0.7566079  0.7145134 -0.1172960    0.00000       Uiso       1.00
       C91          C  0.7183422  0.7223259  0.0344687    0.00000       Uiso       1.00
       C92          C  0.7123271  0.7582876  0.1706520    0.00000       Uiso       1.00
       C93          C  0.7433939  0.7854868  0.1556143    0.00000       Uiso       1.00
       H54          H  0.8148641  0.7348761 -0.2448021    0.00000       Uiso       1.00
       H55          H  0.7623976  0.6889027 -0.2192447    0.00000       Uiso       1.00
       H56          H  0.6851381  0.7651240  0.2831265    0.00000       Uiso       1.00
       H57          H  0.7376039  0.8110977  0.2575598    0.00000       Uiso       1.00
       C94          C  0.8133518  0.8043580 -0.0152285    0.00000       Uiso       1.00
        N7          N  0.8099303  0.8383964  0.1272660    0.00000       Uiso       1.00
       H58          H  0.1602991  0.2023521 -0.1398643    0.00000       Uiso       1.00
       C95          C  0.0442401  0.0343459  0.2549948    0.00000       Uiso       1.00
       C96          C  0.9785662  0.0671188  0.3163729    0.00000       Uiso       1.00
       C97          C  0.9123960  0.0347473  0.2024321    0.00000       Uiso       1.00
       C98          C  0.8874822  0.0673773  0.1810865    0.00000       Uiso       1.00
       C99          C  0.8489177  0.0692544  0.3449783    0.00000       Uiso       1.00
      C100          C  0.8235288  0.1008571  0.3192246    0.00000       Uiso       1.00
      C101          C  0.8361506  0.1322782  0.1355406    0.00000       Uiso       1.00
      C102          C  0.8745569  0.1310074 -0.0272760    0.00000       Uiso       1.00
      C103          C  0.8991897  0.0988604 -0.0094107    0.00000       Uiso       1.00
       H59          H  0.9645358  0.0920312  0.3599432    0.00000       Uiso       1.00
       H60          H  0.8388294  0.0475033  0.4881723    0.00000       Uiso       1.00
       H61          H  0.7957840  0.1008591  0.4390568    0.00000       Uiso       1.00
       H62          H  0.8848398  0.1530813 -0.1643253    0.00000       Uiso       1.00
       H63          H  0.9259591  0.0987220 -0.1407106    0.00000       Uiso       1.00
      C104          C  0.6866503  0.3043576  0.0535603    0.00000       Uiso       1.00
        N8          N  0.6900710  0.3383963 -0.0889285    0.00000       Uiso       1.00
       H64          H  0.3396994  0.7023527  0.1782028    0.00000       Uiso       1.00
      C105          C  0.3925642  0.4999999 -0.1224821    0.00000       Uiso       1.00
      C106          C  0.5220625  0.4999999 -0.2151349    0.00000       Uiso       1.00
       H65          H  0.3620608  0.4999999 -0.0591051    0.00000       Uiso       1.00
      C107          C  0.6074364  0.4999999 -0.1224821    0.00000       Uiso       1.00
      C108          C  0.4779381  0.4999999 -0.2151349    0.00000       Uiso       1.00
       H66          H  0.6379398  0.4999999 -0.0591051    0.00000       Uiso       1.00
      C109          C  0.1074362  0.0000000  0.1608826    0.00000       Uiso       1.00
      C110          C  0.9779384  0.0000000  0.2535343    0.00000       Uiso       1.00
       H67          H  0.1379396  0.0000000  0.0975076    0.00000       Uiso       1.00
      C111          C  0.8925644  0.0000000  0.1608826    0.00000       Uiso       1.00
      C112          C  0.0220623  0.0000000  0.2535343    0.00000       Uiso       1.00
       H68          H  0.8620610  0.0000000  0.0975076    0.00000       Uiso       1.00
