data_crystal
 
_cell_length_a    32.59910
_cell_length_b    35.99280
_cell_length_c    4.00360
_cell_angle_alpha 90.00000
_cell_angle_beta  90.00000
_cell_angle_gamma 90.00000
 
_symmetry_space_group_name_Hall 'P 1'
_symmetry_space_group_name_H-M  'P 1'
 
loop_
_symmetry_equiv_pos_as_xyz
 'x,y,z' 
 
loop_
_atom_site_label
_atom_site_type_symbol
_atom_site_fract_x
_atom_site_fract_y
_atom_site_fract_z
_atom_site_charge
C          C       0.54421   0.53421  -0.24169   0.0000000000
C          C       0.47859   0.56685  -0.30345   0.0000000000
C          C       0.41247   0.53462  -0.18893   0.0000000000
C          C       0.38754   0.56711  -0.16793   0.0000000000
C          C       0.34896   0.56889  -0.33187   0.0000000000
C          C       0.32355   0.60034  -0.30633   0.0000000000
C          C       0.33613   0.63170  -0.12262   0.0000000000
C          C       0.37457   0.63056   0.03987   0.0000000000
C          C       0.39924   0.59857   0.02218   0.0000000000
H          H       0.46458   0.59167  -0.34732   0.0000000000
H          H       0.33888   0.54717  -0.47501   0.0000000000
H          H       0.29580   0.60027  -0.42621   0.0000000000
H          H       0.38489   0.65262   0.17635   0.0000000000
H          H       0.42602   0.59852   0.15343   0.0000000000
C          C       0.21886   0.77839  -0.01544   0.0000000000
C          C       0.21209   0.74250  -0.15160   0.0000000000
C          C       0.24251   0.71467  -0.13635   0.0000000000
F          F       0.17719   0.73403  -0.29607   0.0000000000
F          F       0.23356   0.68230  -0.26712   0.0000000000
C          C       0.18755   0.80557  -0.03550   0.0000000000
N          N       0.19016   0.83915   0.11453   0.0000000000
H          H       0.83838   0.20032  -0.16842   0.0000000000
C          C       0.45579   0.46579  -0.24169   0.0000000000
C          C       0.52141   0.43315  -0.30345   0.0000000000
C          C       0.58753   0.46538  -0.18893   0.0000000000
C          C       0.61246   0.43289  -0.16793   0.0000000000
C          C       0.65104   0.43111  -0.33187   0.0000000000
C          C       0.67645   0.39966  -0.30633   0.0000000000
C          C       0.66387   0.36830  -0.12262   0.0000000000
C          C       0.62543   0.36944   0.03987   0.0000000000
C          C       0.60077   0.40143   0.02218   0.0000000000
H          H       0.53542   0.40833  -0.34732   0.0000000000
H          H       0.66112   0.45283  -0.47501   0.0000000000
H          H       0.70420   0.39973  -0.42621   0.0000000000
H          H       0.61511   0.34738   0.17635   0.0000000000
H          H       0.57398   0.40148   0.15343   0.0000000000
C          C       0.78114   0.22161  -0.01544   0.0000000000
C          C       0.78792   0.25750  -0.15160   0.0000000000
C          C       0.75749   0.28533  -0.13635   0.0000000000
F          F       0.82282   0.26597  -0.29607   0.0000000000
F          F       0.76644   0.31770  -0.26712   0.0000000000
C          C       0.81245   0.19443  -0.03550   0.0000000000
N          N       0.80984   0.16085   0.11453   0.0000000000
H          H       0.16162   0.79968  -0.16842   0.0000000000
C          C       0.95579   0.03421   0.24169   0.0000000000
C          C       0.02141   0.06685   0.30345   0.0000000000
C          C       0.08753   0.03462   0.18893   0.0000000000
C          C       0.11246   0.06711   0.16793   0.0000000000
C          C       0.15104   0.06889   0.33187   0.0000000000
C          C       0.17645   0.10034   0.30633   0.0000000000
C          C       0.16387   0.13170   0.12262   0.0000000000
C          C       0.12543   0.13056  -0.03987   0.0000000000
C          C       0.10077   0.09857  -0.02218   0.0000000000
H          H       0.03542   0.09167   0.34732   0.0000000000
H          H       0.16112   0.04717   0.47501   0.0000000000
H          H       0.20420   0.10027   0.42621   0.0000000000
H          H       0.11511   0.15262  -0.17635   0.0000000000
H          H       0.07398   0.09852  -0.15343   0.0000000000
C          C       0.28114   0.27839   0.01544   0.0000000000
C          C       0.28791   0.24250   0.15160   0.0000000000
C          C       0.25749   0.21467   0.13635   0.0000000000
F          F       0.32282   0.23403   0.29607   0.0000000000
F          F       0.26644   0.18230   0.26712   0.0000000000
C          C       0.31245   0.30557   0.03550   0.0000000000
N          N       0.30984   0.33915  -0.11453   0.0000000000
H          H       0.66162   0.70032   0.16842   0.0000000000
C          C       0.04421   0.96578   0.24169   0.0000000000
C          C       0.97859   0.93315   0.30345   0.0000000000
C          C       0.91247   0.96538   0.18893   0.0000000000
C          C       0.88754   0.93289   0.16793   0.0000000000
C          C       0.84896   0.93111   0.33187   0.0000000000
C          C       0.82355   0.89966   0.30633   0.0000000000
C          C       0.83614   0.86830   0.12262   0.0000000000
C          C       0.87457   0.86944  -0.03987   0.0000000000
C          C       0.89924   0.90143  -0.02218   0.0000000000
H          H       0.96458   0.90833   0.34732   0.0000000000
H          H       0.83888   0.95283   0.47501   0.0000000000
H          H       0.79580   0.89973   0.42621   0.0000000000
H          H       0.88489   0.84738  -0.17635   0.0000000000
H          H       0.92602   0.90148  -0.15343   0.0000000000
C          C       0.71887   0.72161   0.01544   0.0000000000
C          C       0.71209   0.75750   0.15160   0.0000000000
C          C       0.74251   0.78533   0.13635   0.0000000000
F          F       0.67719   0.76597   0.29607   0.0000000000
F          F       0.73356   0.81770   0.26712   0.0000000000
C          C       0.68755   0.69443   0.03550   0.0000000000
N          N       0.69016   0.66085  -0.11453   0.0000000000
H          H       0.33838   0.29968   0.16842   0.0000000000
C          C       0.95579   0.96578   0.24169   0.0000000000
C          C       0.02141   0.93315   0.30345   0.0000000000
C          C       0.08753   0.96538   0.18893   0.0000000000
C          C       0.11246   0.93289   0.16793   0.0000000000
C          C       0.15104   0.93111   0.33187   0.0000000000
C          C       0.17645   0.89966   0.30633   0.0000000000
C          C       0.16387   0.86830   0.12262   0.0000000000
C          C       0.12543   0.86944  -0.03987   0.0000000000
C          C       0.10077   0.90143  -0.02218   0.0000000000
H          H       0.03542   0.90833   0.34732   0.0000000000
H          H       0.16112   0.95283   0.47501   0.0000000000
H          H       0.20420   0.89973   0.42621   0.0000000000
H          H       0.11511   0.84738  -0.17635   0.0000000000
H          H       0.07398   0.90148  -0.15343   0.0000000000
C          C       0.28114   0.72161   0.01544   0.0000000000
C          C       0.28791   0.75750   0.15160   0.0000000000
C          C       0.25749   0.78533   0.13635   0.0000000000
F          F       0.32282   0.76597   0.29607   0.0000000000
F          F       0.26644   0.81770   0.26712   0.0000000000
C          C       0.31245   0.69443   0.03550   0.0000000000
N          N       0.30984   0.66085  -0.11453   0.0000000000
H          H       0.66162   0.29968   0.16842   0.0000000000
C          C       0.04421   0.03421   0.24169   0.0000000000
C          C       0.97859   0.06685   0.30345   0.0000000000
C          C       0.91247   0.03462   0.18893   0.0000000000
C          C       0.88754   0.06711   0.16793   0.0000000000
C          C       0.84896   0.06889   0.33187   0.0000000000
C          C       0.82355   0.10034   0.30633   0.0000000000
C          C       0.83614   0.13170   0.12262   0.0000000000
C          C       0.87457   0.13056  -0.03987   0.0000000000
C          C       0.89924   0.09857  -0.02218   0.0000000000
H          H       0.96458   0.09167   0.34732   0.0000000000
H          H       0.83888   0.04717   0.47501   0.0000000000
H          H       0.79580   0.10027   0.42621   0.0000000000
H          H       0.88489   0.15262  -0.17635   0.0000000000
H          H       0.92602   0.09852  -0.15343   0.0000000000
C          C       0.71887   0.27839   0.01544   0.0000000000
C          C       0.71209   0.24250   0.15160   0.0000000000
C          C       0.74251   0.21467   0.13635   0.0000000000
F          F       0.67719   0.23403   0.29607   0.0000000000
F          F       0.73356   0.18230   0.26712   0.0000000000
C          C       0.68755   0.30557   0.03550   0.0000000000
N          N       0.69016   0.33915  -0.11453   0.0000000000
H          H       0.33838   0.70032   0.16842   0.0000000000
C          C       0.54421   0.46579  -0.24169   0.0000000000
C          C       0.47859   0.43315  -0.30345   0.0000000000
C          C       0.41247   0.46538  -0.18893   0.0000000000
C          C       0.38754   0.43289  -0.16793   0.0000000000
C          C       0.34896   0.43111  -0.33187   0.0000000000
C          C       0.32355   0.39966  -0.30633   0.0000000000
C          C       0.33613   0.36830  -0.12262   0.0000000000
C          C       0.37457   0.36944   0.03987   0.0000000000
C          C       0.39924   0.40143   0.02218   0.0000000000
H          H       0.46458   0.40833  -0.34732   0.0000000000
H          H       0.33888   0.45283  -0.47501   0.0000000000
H          H       0.29580   0.39973  -0.42621   0.0000000000
H          H       0.38489   0.34738   0.17635   0.0000000000
H          H       0.42602   0.40148   0.15343   0.0000000000
C          C       0.21886   0.22161  -0.01544   0.0000000000
C          C       0.21209   0.25750  -0.15160   0.0000000000
C          C       0.24251   0.28533  -0.13635   0.0000000000
F          F       0.17719   0.26597  -0.29607   0.0000000000
F          F       0.23356   0.31770  -0.26712   0.0000000000
C          C       0.18755   0.19443  -0.03550   0.0000000000
N          N       0.19016   0.16085   0.11453   0.0000000000
H          H       0.83838   0.79968  -0.16842   0.0000000000
C          C       0.45579   0.53421  -0.24169   0.0000000000
C          C       0.52141   0.56685  -0.30345   0.0000000000
C          C       0.58753   0.53462  -0.18893   0.0000000000
C          C       0.61246   0.56711  -0.16793   0.0000000000
C          C       0.65104   0.56889  -0.33187   0.0000000000
C          C       0.67645   0.60034  -0.30633   0.0000000000
C          C       0.66387   0.63170  -0.12262   0.0000000000
C          C       0.62543   0.63056   0.03987   0.0000000000
C          C       0.60077   0.59857   0.02218   0.0000000000
H          H       0.53542   0.59167  -0.34732   0.0000000000
H          H       0.66112   0.54717  -0.47501   0.0000000000
H          H       0.70420   0.60027  -0.42621   0.0000000000
H          H       0.61511   0.65262   0.17635   0.0000000000
H          H       0.57398   0.59852   0.15343   0.0000000000
C          C       0.78114   0.77839  -0.01544   0.0000000000
C          C       0.78792   0.74250  -0.15160   0.0000000000
C          C       0.75749   0.71467  -0.13635   0.0000000000
F          F       0.82282   0.73403  -0.29607   0.0000000000
F          F       0.76644   0.68230  -0.26712   0.0000000000
C          C       0.81245   0.80557  -0.03550   0.0000000000
N          N       0.80984   0.83915   0.11453   0.0000000000
H          H       0.16162   0.20032  -0.16842   0.0000000000
C          C       0.39267   0.50000  -0.14688   0.0000000000
C          C       0.52204   0.50000  -0.24015   0.0000000000
H          H       0.36221   0.50000  -0.08284   0.0000000000
C          C       0.60733   0.50000  -0.14688   0.0000000000
C          C       0.47796   0.50000  -0.24015   0.0000000000
H          H       0.63779   0.50000  -0.08284   0.0000000000
C          C       0.10733   0.00000   0.14688   0.0000000000
C          C       0.97796   0.00000   0.24015   0.0000000000
H          H       0.13779   0.00000   0.08284   0.0000000000
C          C       0.89267   0.00000   0.14688   0.0000000000
C          C       0.02204   0.00000   0.24015   0.0000000000
H          H       0.86221   0.00000   0.08284   0.0000000000
