data_crystal
 
_cell_length_a    37.67090
_cell_length_b    43.27420
_cell_length_c    4.00700
_cell_angle_alpha 90.00000
_cell_angle_beta  90.00000
_cell_angle_gamma 90.00000
 
_symmetry_space_group_name_Hall 'P 1'
_symmetry_space_group_name_H-M  'P 1'
 
loop_
_symmetry_equiv_pos_as_xyz
 'x,y,z' 
 
loop_
_atom_site_label
_atom_site_type_symbol
_atom_site_fract_x
_atom_site_fract_y
_atom_site_fract_z
_atom_site_charge
C          C       0.96730   0.46672   0.33946   0.0000000000
C          C       0.46733   0.96669   0.57576   0.0000000000
C          C       0.03272   0.53328   0.33946   0.0000000000
C          C       0.53270   0.03331   0.57576   0.0000000000
C          C       0.96730   0.53328   0.33946   0.0000000000
C          C       0.46733   0.03331   0.57576   0.0000000000
C          C       0.03272   0.46672   0.33946   0.0000000000
C          C       0.53270   0.96669   0.57576   0.0000000000
C          C       0.93605   0.51614   0.27942   0.0000000000
C          C       0.43610   0.01614   0.51497   0.0000000000
C          C       0.06398   0.48386   0.27942   0.0000000000
C          C       0.56393   0.98386   0.51497   0.0000000000
C          C       0.93605   0.48386   0.27942   0.0000000000
C          C       0.43610   0.98386   0.51497   0.0000000000
C          C       0.06398   0.51614   0.27942   0.0000000000
C          C       0.56393   0.01614   0.51497   0.0000000000
C          C       0.96694   0.56593   0.39147   0.0000000000
C          C       0.46696   0.06598   0.62667   0.0000000000
C          C       0.03309   0.43407   0.39147   0.0000000000
C          C       0.53307   0.93402   0.62667   0.0000000000
C          C       0.96694   0.43407   0.39147   0.0000000000
C          C       0.46696   0.93402   0.62667   0.0000000000
C          C       0.03309   0.56593   0.39147   0.0000000000
C          C       0.53307   0.06598   0.62667   0.0000000000
C          C       0.93594   0.58476   0.41320   0.0000000000
C          C       0.43587   0.08471   0.64561   0.0000000000
C          C       0.06409   0.41524   0.41320   0.0000000000
C          C       0.56416   0.91529   0.64561   0.0000000000
C          C       0.93594   0.41524   0.41320   0.0000000000
C          C       0.43587   0.91529   0.64561   0.0000000000
C          C       0.06409   0.58476   0.41320   0.0000000000
C          C       0.56416   0.08471   0.64561   0.0000000000
C          C       0.90604   0.57616   0.60584   0.0000000000
C          C       0.40591   0.07601   0.83688   0.0000000000
C          C       0.09399   0.42384   0.60584   0.0000000000
C          C       0.59412   0.92399   0.83688   0.0000000000
C          C       0.90604   0.42384   0.60584   0.0000000000
C          C       0.40591   0.92399   0.83688   0.0000000000
C          C       0.09399   0.57616   0.60584   0.0000000000
C          C       0.59412   0.07601   0.83688   0.0000000000
C          C       0.87573   0.59506   0.62807   0.0000000000
C          C       0.37505   0.09429   0.84855   0.0000000000
C          C       0.12430   0.40494   0.62807   0.0000000000
C          C       0.62498   0.90571   0.84855   0.0000000000
C          C       0.87573   0.40494   0.62807   0.0000000000
C          C       0.37505   0.90571   0.84855   0.0000000000
C          C       0.12430   0.59506   0.62807   0.0000000000
C          C       0.62498   0.09429   0.84855   0.0000000000
C          C       0.87464   0.62419   0.46892   0.0000000000
C          C       0.37338   0.12291   0.67928   0.0000000000
C          C       0.12538   0.37581   0.46892   0.0000000000
C          C       0.62665   0.87709   0.67928   0.0000000000
C          C       0.87464   0.37581   0.46892   0.0000000000
C          C       0.37338   0.87709   0.67928   0.0000000000
C          C       0.12538   0.62419   0.46892   0.0000000000
C          C       0.62665   0.12291   0.67928   0.0000000000
C          C       0.90452   0.63324   0.27910   0.0000000000
C          C       0.40359   0.13238   0.49664   0.0000000000
C          C       0.09551   0.36676   0.27910   0.0000000000
C          C       0.59644   0.86762   0.49664   0.0000000000
C          C       0.90452   0.36676   0.27910   0.0000000000
C          C       0.40359   0.86762   0.49664   0.0000000000
C          C       0.09551   0.63324   0.27910   0.0000000000
C          C       0.59644   0.13238   0.49664   0.0000000000
C          C       0.93426   0.61376   0.24862   0.0000000000
C          C       0.43395   0.11350   0.47713   0.0000000000
C          C       0.06576   0.38624   0.24862   0.0000000000
C          C       0.56607   0.88649   0.47713   0.0000000000
C          C       0.93426   0.38624   0.24862   0.0000000000
C          C       0.43395   0.88649   0.47713   0.0000000000
C          C       0.06576   0.61376   0.24862   0.0000000000
C          C       0.56607   0.11350   0.47713   0.0000000000
C          C       0.84466   0.64339   0.50597   0.0000000000
C          C       0.34225   0.14092   0.69553   0.0000000000
C          C       0.15537   0.35661   0.50597   0.0000000000
C          C       0.65778   0.85908   0.69553   0.0000000000
C          C       0.84466   0.35661   0.50597   0.0000000000
C          C       0.34225   0.85908   0.69553   0.0000000000
C          C       0.15537   0.64339   0.50597   0.0000000000
C          C       0.65778   0.14092   0.69553   0.0000000000
H          H       0.91239   0.52683   0.23671   0.0000000000
H          H       0.41245   0.02680   0.47123   0.0000000000
H          H       0.08764   0.47316   0.23671   0.0000000000
H          H       0.58758   0.97320   0.47123   0.0000000000
H          H       0.91239   0.47316   0.23671   0.0000000000
H          H       0.41245   0.97320   0.47123   0.0000000000
H          H       0.08764   0.52683   0.23671   0.0000000000
H          H       0.58758   0.02680   0.47123   0.0000000000
H          H       0.90621   0.55600   0.73726   0.0000000000
H          H       0.40637   0.05614   0.97334   0.0000000000
H          H       0.09382   0.44400   0.73726   0.0000000000
H          H       0.59366   0.94386   0.97334   0.0000000000
H          H       0.90621   0.44400   0.73726   0.0000000000
H          H       0.40637   0.94386   0.97334   0.0000000000
H          H       0.09382   0.55600   0.73726   0.0000000000
H          H       0.59366   0.05614   0.97334   0.0000000000
H          H       0.85470   0.58758   0.76842   0.0000000000
H          H       0.35394   0.08665   0.98675   0.0000000000
H          H       0.14533   0.41241   0.76842   0.0000000000
H          H       0.64609   0.91335   0.98675   0.0000000000
H          H       0.85470   0.41241   0.76842   0.0000000000
H          H       0.35394   0.91335   0.98675   0.0000000000
H          H       0.14533   0.58758   0.76842   0.0000000000
H          H       0.64609   0.08665   0.98675   0.0000000000
H          H       0.90470   0.65406   0.15793   0.0000000000
H          H       0.40350   0.15301   0.37148   0.0000000000
H          H       0.09533   0.34594   0.15793   0.0000000000
H          H       0.59653   0.84699   0.37148   0.0000000000
H          H       0.90470   0.34594   0.15793   0.0000000000
H          H       0.40350   0.84699   0.37148   0.0000000000
H          H       0.09533   0.65406   0.15793   0.0000000000
H          H       0.59653   0.15301   0.37148   0.0000000000
H          H       0.95482   0.62100   0.10102   0.0000000000
H          H       0.45470   0.12095   0.33314   0.0000000000
H          H       0.04521   0.37900   0.10102   0.0000000000
H          H       0.54533   0.87905   0.33314   0.0000000000
H          H       0.95482   0.37900   0.10102   0.0000000000
H          H       0.45470   0.87905   0.33314   0.0000000000
H          H       0.04521   0.62100   0.10102   0.0000000000
H          H       0.54533   0.12095   0.33314   0.0000000000
H          H       0.82330   0.63522   0.63655   0.0000000000
H          H       0.32126   0.13281   0.83169   0.0000000000
H          H       0.17673   0.36478   0.63655   0.0000000000
H          H       0.67877   0.86719   0.83169   0.0000000000
H          H       0.82330   0.36478   0.63655   0.0000000000
H          H       0.32126   0.86719   0.83169   0.0000000000
H          H       0.17673   0.63522   0.63655   0.0000000000
H          H       0.67877   0.13281   0.83169   0.0000000000
N          N       0.84382   0.67247   0.38157   0.0000000000
N          N       0.33944   0.16858   0.53970   0.0000000000
N          N       0.15621   0.32753   0.38157   0.0000000000
N          N       0.66059   0.83142   0.53970   0.0000000000
N          N       0.84382   0.32753   0.38157   0.0000000000
N          N       0.33944   0.83142   0.53970   0.0000000000
N          N       0.15621   0.67247   0.38157   0.0000000000
N          N       0.66059   0.16858   0.53970   0.0000000000
C          C       0.00001   0.58084   0.43320   0.0000000000
C          C       0.00001   0.41916   0.43320   0.0000000000
C          C       0.50001   0.08094   0.66758   0.0000000000
C          C       0.50001   0.91906   0.66758   0.0000000000
C          C       0.00001   0.48340   0.34071   0.0000000000
C          C       0.00001   0.51660   0.34071   0.0000000000
C          C       0.50001   0.98339   0.57769   0.0000000000
C          C       0.50001   0.01661   0.57769   0.0000000000
H          H       0.00001   0.60377   0.49755   0.0000000000
H          H       0.00001   0.39623   0.49755   0.0000000000
H          H       0.50001   0.10392   0.72989   0.0000000000
H          H       0.50001   0.89608   0.72989   0.0000000000
C          C       0.18185   0.30561   0.39460   0.0000000000
C          C       0.17261   0.27580   0.28335   0.0000000000
C          C       0.19725   0.25136   0.29872   0.0000000000
C          C       0.23180   0.25686   0.42401   0.0000000000
N          N       0.24006   0.28613   0.52164   0.0000000000
C          C       0.21684   0.31011   0.51211   0.0000000000
H          H       0.14768   0.27184   0.19156   0.0000000000
H          H       0.18998   0.22991   0.21674   0.0000000000
H          H       0.22524   0.33123   0.59175   0.0000000000
C          C       0.68833   0.81158   0.51746   0.0000000000
C          C       0.68148   0.78156   0.39783   0.0000000000
N          N       0.70808   0.76048   0.37316   0.0000000000
C          C       0.74247   0.76661   0.45461   0.0000000000
C          C       0.75077   0.79661   0.57180   0.0000000000
C          C       0.72373   0.81888   0.60357   0.0000000000
H          H       0.65634   0.77533   0.33010   0.0000000000
H          H       0.77616   0.80225   0.63823   0.0000000000
H          H       0.73011   0.84037   0.68920   0.0000000000
C          C       0.81818   0.69439   0.39460   0.0000000000
C          C       0.82742   0.72420   0.28335   0.0000000000
C          C       0.80278   0.74864   0.29872   0.0000000000
C          C       0.76823   0.74314   0.42401   0.0000000000
N          N       0.75997   0.71387   0.52164   0.0000000000
C          C       0.78319   0.68989   0.51211   0.0000000000
H          H       0.85235   0.72816   0.19156   0.0000000000
H          H       0.81005   0.77009   0.21674   0.0000000000
H          H       0.77479   0.66877   0.59175   0.0000000000
C          C       0.31170   0.18842   0.51746   0.0000000000
C          C       0.31855   0.21844   0.39783   0.0000000000
N          N       0.29195   0.23952   0.37316   0.0000000000
C          C       0.25756   0.23339   0.45461   0.0000000000
C          C       0.24926   0.20339   0.57180   0.0000000000
C          C       0.27630   0.18111   0.60357   0.0000000000
H          H       0.34368   0.22467   0.33010   0.0000000000
H          H       0.22387   0.19775   0.63823   0.0000000000
H          H       0.26991   0.15963   0.68920   0.0000000000
C          C       0.18185   0.69439   0.39460   0.0000000000
C          C       0.17261   0.72420   0.28335   0.0000000000
C          C       0.19725   0.74864   0.29872   0.0000000000
C          C       0.23180   0.74314   0.42401   0.0000000000
N          N       0.24006   0.71387   0.52164   0.0000000000
C          C       0.21684   0.68989   0.51211   0.0000000000
H          H       0.14768   0.72816   0.19156   0.0000000000
H          H       0.18998   0.77009   0.21674   0.0000000000
H          H       0.22524   0.66877   0.59175   0.0000000000
C          C       0.68833   0.18842   0.51746   0.0000000000
C          C       0.68148   0.21844   0.39783   0.0000000000
N          N       0.70808   0.23952   0.37316   0.0000000000
C          C       0.74247   0.23339   0.45461   0.0000000000
C          C       0.75077   0.20339   0.57180   0.0000000000
C          C       0.72373   0.18111   0.60357   0.0000000000
H          H       0.65634   0.22467   0.33010   0.0000000000
H          H       0.77616   0.19775   0.63823   0.0000000000
H          H       0.73011   0.15963   0.68920   0.0000000000
C          C       0.81818   0.30561   0.39460   0.0000000000
C          C       0.82742   0.27580   0.28335   0.0000000000
C          C       0.80278   0.25136   0.29872   0.0000000000
C          C       0.76823   0.25686   0.42401   0.0000000000
N          N       0.75997   0.28613   0.52164   0.0000000000
C          C       0.78319   0.31011   0.51211   0.0000000000
H          H       0.85235   0.27184   0.19156   0.0000000000
H          H       0.81005   0.22991   0.21674   0.0000000000
H          H       0.77479   0.33123   0.59175   0.0000000000
C          C       0.31170   0.81158   0.51746   0.0000000000
C          C       0.31855   0.78156   0.39783   0.0000000000
N          N       0.29195   0.76048   0.37316   0.0000000000
C          C       0.25756   0.76661   0.45461   0.0000000000
C          C       0.24926   0.79661   0.57180   0.0000000000
C          C       0.27630   0.81888   0.60357   0.0000000000
H          H       0.34368   0.77533   0.33010   0.0000000000
H          H       0.22387   0.80225   0.63823   0.0000000000
H          H       0.26991   0.84037   0.68920   0.0000000000
