data_Py-23-BPYPH_COF
_audit_creation_date              0000-00-00
_audit_creation_method            'LanYouShi'
_symmetry_space_group_name_H-M    'P1'
_cell_length_a                    37.8005981
_cell_length_b                    43.2644997
_cell_length_c                    3.9593000
_cell_angle_alpha                 90.0000000
_cell_angle_beta                  90.0000000
_cell_angle_gamma                 90.0000000
loop_
_atom_site_label
_atom_site_type_symbol
_atom_site_fract_x
_atom_site_fract_y
_atom_site_fract_z
_atom_site_U_iso_or_equiv
_atom_site_adp_type
_atom_site_occupancy
        C1          C  0.9674303  0.4666846  0.4638891    0.00000       Uiso       1.00
        C2          C  0.4674309  0.9666846  0.4638891    0.00000       Uiso       1.00
        C3          C  0.0325971  0.5333151  0.4638891    0.00000       Uiso       1.00
        C4          C  0.5325965  0.0333151  0.4638891    0.00000       Uiso       1.00
        C5          C  0.9674303  0.5333151  0.4638891    0.00000       Uiso       1.00
        C6          C  0.4674309  0.0333151  0.4638891    0.00000       Uiso       1.00
        C7          C  0.0325971  0.4666846  0.4638891    0.00000       Uiso       1.00
        C8          C  0.5325965  0.9666846  0.4638891    0.00000       Uiso       1.00
        C9          C  0.9363416  0.5161445  0.4014314    0.00000       Uiso       1.00
       C10          C  0.4363422  0.0161445  0.4014314    0.00000       Uiso       1.00
       C11          C  0.0636858  0.4838552  0.4014314    0.00000       Uiso       1.00
       C12          C  0.5636852  0.9838552  0.4014314    0.00000       Uiso       1.00
       C13          C  0.9363416  0.4838552  0.4014314    0.00000       Uiso       1.00
       C14          C  0.4363422  0.9838552  0.4014314    0.00000       Uiso       1.00
       C15          C  0.0636858  0.5161445  0.4014314    0.00000       Uiso       1.00
       C16          C  0.5636852  0.0161445  0.4014314    0.00000       Uiso       1.00
       C17          C  0.9670426  0.5659839  0.5162787    0.00000       Uiso       1.00
       C18          C  0.4670432  0.0659839  0.5162787    0.00000       Uiso       1.00
       C19          C  0.0329848  0.4340159  0.5162787    0.00000       Uiso       1.00
       C20          C  0.5329843  0.9340159  0.5162787    0.00000       Uiso       1.00
       C21          C  0.9670426  0.4340159  0.5162787    0.00000       Uiso       1.00
       C22          C  0.4670432  0.9340159  0.5162787    0.00000       Uiso       1.00
       C23          C  0.0329848  0.5659839  0.5162787    0.00000       Uiso       1.00
       C24          C  0.5329843  0.0659839  0.5162787    0.00000       Uiso       1.00
       C25          C  0.9361404  0.5848644  0.5343519    0.00000       Uiso       1.00
       C26          C  0.4361410  0.0848644  0.5343519    0.00000       Uiso       1.00
       C27          C  0.0638871  0.4151354  0.5343519    0.00000       Uiso       1.00
       C28          C  0.5638865  0.9151353  0.5343519    0.00000       Uiso       1.00
       C29          C  0.9361404  0.4151354  0.5343519    0.00000       Uiso       1.00
       C30          C  0.4361410  0.9151353  0.5343519    0.00000       Uiso       1.00
       C31          C  0.0638871  0.5848644  0.5343519    0.00000       Uiso       1.00
       C32          C  0.5638865  0.0848644  0.5343519    0.00000       Uiso       1.00
       C33          C  0.9059172  0.5762145  0.7230973    0.00000       Uiso       1.00
       C34          C  0.4059178  0.0762145  0.7230973    0.00000       Uiso       1.00
       C35          C  0.0941102  0.4237853  0.7230973    0.00000       Uiso       1.00
       C36          C  0.5941096  0.9237852  0.7230973    0.00000       Uiso       1.00
       C37          C  0.9059172  0.4237853  0.7230973    0.00000       Uiso       1.00
       C38          C  0.4059178  0.9237852  0.7230973    0.00000       Uiso       1.00
       C39          C  0.0941102  0.5762145  0.7230973    0.00000       Uiso       1.00
       C40          C  0.5941096  0.0762145  0.7230973    0.00000       Uiso       1.00
       C41          C  0.8754609  0.5948784  0.7363963    0.00000       Uiso       1.00
       C42          C  0.3754615  0.0948784  0.7363963    0.00000       Uiso       1.00
       C43          C  0.1245665  0.4051214  0.7363963    0.00000       Uiso       1.00
       C44          C  0.6245659  0.9051213  0.7363963    0.00000       Uiso       1.00
       C45          C  0.8754609  0.4051214  0.7363963    0.00000       Uiso       1.00
       C46          C  0.3754615  0.9051213  0.7363963    0.00000       Uiso       1.00
       C47          C  0.1245665  0.5948784  0.7363963    0.00000       Uiso       1.00
       C48          C  0.6245659  0.0948784  0.7363963    0.00000       Uiso       1.00
       C49          C  0.8745010  0.6238744  0.5723472    0.00000       Uiso       1.00
       C50          C  0.3745017  0.1238744  0.5723472    0.00000       Uiso       1.00
       C51          C  0.1255264  0.3761254  0.5723472    0.00000       Uiso       1.00
       C52          C  0.6255257  0.8761253  0.5723472    0.00000       Uiso       1.00
       C53          C  0.8745010  0.3761254  0.5723472    0.00000       Uiso       1.00
       C54          C  0.3745017  0.8761253  0.5723472    0.00000       Uiso       1.00
       C55          C  0.1255264  0.6238744  0.5723472    0.00000       Uiso       1.00
       C56          C  0.6255257  0.1238744  0.5723472    0.00000       Uiso       1.00
       C57          C  0.9048401  0.6331811  0.3901110    0.00000       Uiso       1.00
       C58          C  0.4048406  0.1331811  0.3901110    0.00000       Uiso       1.00
       C59          C  0.0951874  0.3668186  0.3901110    0.00000       Uiso       1.00
       C60          C  0.5951868  0.8668185  0.3901110    0.00000       Uiso       1.00
       C61          C  0.9048401  0.3668186  0.3901110    0.00000       Uiso       1.00
       C62          C  0.4048406  0.8668185  0.3901110    0.00000       Uiso       1.00
       C63          C  0.0951874  0.6331811  0.3901110    0.00000       Uiso       1.00
       C64          C  0.5951868  0.1331811  0.3901110    0.00000       Uiso       1.00
       C65          C  0.9347447  0.6139017  0.3680465    0.00000       Uiso       1.00
       C66          C  0.4347453  0.1139017  0.3680465    0.00000       Uiso       1.00
       C67          C  0.0652827  0.3860980  0.3680465    0.00000       Uiso       1.00
       C68          C  0.5652821  0.8860980  0.3680465    0.00000       Uiso       1.00
       C69          C  0.9347447  0.3860980  0.3680465    0.00000       Uiso       1.00
       C70          C  0.4347453  0.8860980  0.3680465    0.00000       Uiso       1.00
       C71          C  0.0652827  0.6139017  0.3680465    0.00000       Uiso       1.00
       C72          C  0.5652821  0.1139017  0.3680465    0.00000       Uiso       1.00
       C73          C  0.8440183  0.6425347  0.5944342    0.00000       Uiso       1.00
       C74          C  0.3440190  0.1425347  0.5944342    0.00000       Uiso       1.00
       C75          C  0.1560091  0.3574650  0.5944342    0.00000       Uiso       1.00
       C76          C  0.6560085  0.8574650  0.5944342    0.00000       Uiso       1.00
       C77          C  0.8440183  0.3574650  0.5944342    0.00000       Uiso       1.00
       C78          C  0.3440190  0.8574650  0.5944342    0.00000       Uiso       1.00
       C79          C  0.1560091  0.6425347  0.5944342    0.00000       Uiso       1.00
       C80          C  0.6560085  0.1425347  0.5944342    0.00000       Uiso       1.00
        H1          H  0.9127852  0.5267935  0.3565304    0.00000       Uiso       1.00
        H2          H  0.4127858  0.0267935  0.3565304    0.00000       Uiso       1.00
        H3          H  0.0872423  0.4732063  0.3565304    0.00000       Uiso       1.00
        H4          H  0.5872416  0.9732063  0.3565304    0.00000       Uiso       1.00
        H5          H  0.9127852  0.4732063  0.3565304    0.00000       Uiso       1.00
        H6          H  0.4127858  0.9732063  0.3565304    0.00000       Uiso       1.00
        H7          H  0.0872423  0.5267935  0.3565304    0.00000       Uiso       1.00
        H8          H  0.5872416  0.0267935  0.3565304    0.00000       Uiso       1.00
        H9          H  0.9058974  0.5561368  0.8575060    0.00000       Uiso       1.00
       H10          H  0.4058981  0.0561369  0.8575060    0.00000       Uiso       1.00
       H11          H  0.0941300  0.4438629  0.8575060    0.00000       Uiso       1.00
       H12          H  0.5941294  0.9438629  0.8575060    0.00000       Uiso       1.00
       H13          H  0.9058974  0.4438629  0.8575060    0.00000       Uiso       1.00
       H14          H  0.4058981  0.9438629  0.8575060    0.00000       Uiso       1.00
       H15          H  0.0941300  0.5561368  0.8575060    0.00000       Uiso       1.00
       H16          H  0.5941294  0.0561369  0.8575060    0.00000       Uiso       1.00
       H17          H  0.8541720  0.5872893  0.8730699    0.00000       Uiso       1.00
       H18          H  0.3541726  0.0872892  0.8730699    0.00000       Uiso       1.00
       H19          H  0.1458555  0.4127105  0.8730699    0.00000       Uiso       1.00
       H20          H  0.6458549  0.9127105  0.8730699    0.00000       Uiso       1.00
       H21          H  0.8541720  0.4127105  0.8730699    0.00000       Uiso       1.00
       H22          H  0.3541726  0.9127105  0.8730699    0.00000       Uiso       1.00
       H23          H  0.1458555  0.5872893  0.8730699    0.00000       Uiso       1.00
       H24          H  0.6458549  0.0872892  0.8730699    0.00000       Uiso       1.00
       H25          H  0.9051960  0.6539968  0.2671872    0.00000       Uiso       1.00
       H26          H  0.4051965  0.1539968  0.2671872    0.00000       Uiso       1.00
       H27          H  0.0948315  0.3460029  0.2671872    0.00000       Uiso       1.00
       H28          H  0.5948309  0.8460029  0.2671872    0.00000       Uiso       1.00
       H29          H  0.9051960  0.3460029  0.2671872    0.00000       Uiso       1.00
       H30          H  0.4051965  0.8460029  0.2671872    0.00000       Uiso       1.00
       H31          H  0.0948315  0.6539968  0.2671872    0.00000       Uiso       1.00
       H32          H  0.5948309  0.1539968  0.2671872    0.00000       Uiso       1.00
       H33          H  0.9555845  0.6212873  0.2241964    0.00000       Uiso       1.00
       H34          H  0.4555851  0.1212873  0.2241964    0.00000       Uiso       1.00
       H35          H  0.0444429  0.3787125  0.2241964    0.00000       Uiso       1.00
       H36          H  0.5444424  0.8787125  0.2241964    0.00000       Uiso       1.00
       H37          H  0.9555845  0.3787125  0.2241964    0.00000       Uiso       1.00
       H38          H  0.4555851  0.8787125  0.2241964    0.00000       Uiso       1.00
       H39          H  0.0444429  0.6212873  0.2241964    0.00000       Uiso       1.00
       H40          H  0.5444424  0.1212873  0.2241964    0.00000       Uiso       1.00
       H41          H  0.8222928  0.6340431  0.7173662    0.00000       Uiso       1.00
       H42          H  0.3222934  0.1340431  0.7173662    0.00000       Uiso       1.00
       H43          H  0.1777346  0.3659566  0.7173662    0.00000       Uiso       1.00
       H44          H  0.6777340  0.8659566  0.7173662    0.00000       Uiso       1.00
       H45          H  0.8222928  0.3659566  0.7173662    0.00000       Uiso       1.00
       H46          H  0.3222934  0.8659566  0.7173662    0.00000       Uiso       1.00
       H47          H  0.1777346  0.6340431  0.7173662    0.00000       Uiso       1.00
       H48          H  0.6777340  0.1340431  0.7173662    0.00000       Uiso       1.00
        N1          N  0.8429425  0.6714326  0.4636106    0.00000       Uiso       1.00
        N2          N  0.3429431  0.1714326  0.4636106    0.00000       Uiso       1.00
        N3          N  0.1570850  0.3285672  0.4636106    0.00000       Uiso       1.00
        N4          N  0.6570844  0.8285671  0.4636106    0.00000       Uiso       1.00
        N5          N  0.8429425  0.3285672  0.4636106    0.00000       Uiso       1.00
        N6          N  0.3429431  0.8285671  0.4636106    0.00000       Uiso       1.00
        N7          N  0.1570850  0.6714326  0.4636106    0.00000       Uiso       1.00
        N8          N  0.6570844  0.1714326  0.4636106    0.00000       Uiso       1.00
       C81          C  0.0000143  0.5808627  0.5598767    0.00000       Uiso       1.00
       C82          C  0.5000137  0.0808627  0.5598767    0.00000       Uiso       1.00
       C83          C  0.0000143  0.4191371  0.5598767    0.00000       Uiso       1.00
       C84          C  0.5000137  0.9191370  0.5598767    0.00000       Uiso       1.00
       C85          C  0.0000143  0.4833898  0.4659584    0.00000       Uiso       1.00
       C86          C  0.5000137  0.9833897  0.4659584    0.00000       Uiso       1.00
       C87          C  0.0000143  0.5166100  0.4659584    0.00000       Uiso       1.00
       C88          C  0.5000137  0.0166100  0.4659584    0.00000       Uiso       1.00
       H49          H  0.0000143  0.6037697  0.6259751    0.00000       Uiso       1.00
       H50          H  0.5000137  0.1037697  0.6259751    0.00000       Uiso       1.00
       H51          H  0.0000143  0.3962301  0.6259751    0.00000       Uiso       1.00
       H52          H  0.5000137  0.8962301  0.6259751    0.00000       Uiso       1.00
       C89          C  0.1837367  0.3076450  0.4542826    0.00000       Uiso       1.00
       C90          C  0.1748873  0.2771462  0.3635353    0.00000       Uiso       1.00
       C91          C  0.2009413  0.2538864  0.3544741    0.00000       Uiso       1.00
       C92          C  0.2364843  0.2612422  0.4320021    0.00000       Uiso       1.00
        N9          N  0.2441933  0.2911533  0.5123371    0.00000       Uiso       1.00
       C93          C  0.2196044  0.3140117  0.5269272    0.00000       Uiso       1.00
       H53          H  0.1492557  0.2717872  0.3051571    0.00000       Uiso       1.00
       H54          H  0.1939985  0.2318104  0.2899432    0.00000       Uiso       1.00
       H55          H  0.2276288  0.3357294  0.5900835    0.00000       Uiso       1.00
       C94          C  0.6837361  0.8076450  0.4542826    0.00000       Uiso       1.00
       C95          C  0.6748866  0.7771462  0.3635353    0.00000       Uiso       1.00
       C96          C  0.7009407  0.7538863  0.3544741    0.00000       Uiso       1.00
       C97          C  0.7364837  0.7612422  0.4320021    0.00000       Uiso       1.00
       N10          N  0.7441927  0.7911532  0.5123371    0.00000       Uiso       1.00
       C98          C  0.7196038  0.8140117  0.5269272    0.00000       Uiso       1.00
       H56          H  0.6492551  0.7717872  0.3051571    0.00000       Uiso       1.00
       H57          H  0.6939979  0.7318104  0.2899432    0.00000       Uiso       1.00
       H58          H  0.7276282  0.8357294  0.5900835    0.00000       Uiso       1.00
       C99          C  0.8162908  0.6923548  0.4542826    0.00000       Uiso       1.00
      C100          C  0.8251402  0.7228535  0.3635353    0.00000       Uiso       1.00
      C101          C  0.7990861  0.7461134  0.3544741    0.00000       Uiso       1.00
      C102          C  0.7635431  0.7387576  0.4320021    0.00000       Uiso       1.00
       N11          N  0.7558342  0.7088465  0.5123371    0.00000       Uiso       1.00
      C103          C  0.7804230  0.6859881  0.5269272    0.00000       Uiso       1.00
       H59          H  0.8507717  0.7282125  0.3051571    0.00000       Uiso       1.00
       H60          H  0.8060290  0.7681894  0.2899432    0.00000       Uiso       1.00
       H61          H  0.7723986  0.6642704  0.5900835    0.00000       Uiso       1.00
      C104          C  0.3162914  0.1923548  0.4542826    0.00000       Uiso       1.00
      C105          C  0.3251407  0.2228535  0.3635353    0.00000       Uiso       1.00
      C106          C  0.2990867  0.2461134  0.3544741    0.00000       Uiso       1.00
      C107          C  0.2635437  0.2387576  0.4320021    0.00000       Uiso       1.00
       N12          N  0.2558348  0.2088465  0.5123371    0.00000       Uiso       1.00
      C108          C  0.2804236  0.1859881  0.5269272    0.00000       Uiso       1.00
       H62          H  0.3507724  0.2282126  0.3051571    0.00000       Uiso       1.00
       H63          H  0.3060296  0.2681894  0.2899432    0.00000       Uiso       1.00
       H64          H  0.2723992  0.1642704  0.5900835    0.00000       Uiso       1.00
      C109          C  0.1837367  0.6923548  0.4542826    0.00000       Uiso       1.00
      C110          C  0.1748873  0.7228535  0.3635353    0.00000       Uiso       1.00
      C111          C  0.2009413  0.7461134  0.3544741    0.00000       Uiso       1.00
      C112          C  0.2364843  0.7387576  0.4320021    0.00000       Uiso       1.00
       N13          N  0.2441933  0.7088465  0.5123371    0.00000       Uiso       1.00
      C113          C  0.2196044  0.6859881  0.5269272    0.00000       Uiso       1.00
       H65          H  0.1492557  0.7282125  0.3051571    0.00000       Uiso       1.00
       H66          H  0.1939985  0.7681894  0.2899432    0.00000       Uiso       1.00
       H67          H  0.2276288  0.6642704  0.5900835    0.00000       Uiso       1.00
      C114          C  0.6837361  0.1923548  0.4542826    0.00000       Uiso       1.00
      C115          C  0.6748866  0.2228535  0.3635353    0.00000       Uiso       1.00
      C116          C  0.7009407  0.2461134  0.3544741    0.00000       Uiso       1.00
      C117          C  0.7364837  0.2387576  0.4320021    0.00000       Uiso       1.00
       N14          N  0.7441927  0.2088465  0.5123371    0.00000       Uiso       1.00
      C118          C  0.7196038  0.1859881  0.5269272    0.00000       Uiso       1.00
       H68          H  0.6492551  0.2282126  0.3051571    0.00000       Uiso       1.00
       H69          H  0.6939979  0.2681894  0.2899432    0.00000       Uiso       1.00
       H70          H  0.7276282  0.1642704  0.5900835    0.00000       Uiso       1.00
      C119          C  0.8162908  0.3076450  0.4542826    0.00000       Uiso       1.00
      C120          C  0.8251402  0.2771462  0.3635353    0.00000       Uiso       1.00
      C121          C  0.7990861  0.2538864  0.3544741    0.00000       Uiso       1.00
      C122          C  0.7635431  0.2612422  0.4320021    0.00000       Uiso       1.00
       N15          N  0.7558342  0.2911533  0.5123371    0.00000       Uiso       1.00
      C123          C  0.7804230  0.3140117  0.5269272    0.00000       Uiso       1.00
       H71          H  0.8507717  0.2717872  0.3051571    0.00000       Uiso       1.00
       H72          H  0.8060290  0.2318104  0.2899432    0.00000       Uiso       1.00
       H73          H  0.7723986  0.3357294  0.5900835    0.00000       Uiso       1.00
      C124          C  0.3162914  0.8076450  0.4542826    0.00000       Uiso       1.00
      C125          C  0.3251407  0.7771462  0.3635353    0.00000       Uiso       1.00
      C126          C  0.2990867  0.7538863  0.3544741    0.00000       Uiso       1.00
      C127          C  0.2635437  0.7612422  0.4320021    0.00000       Uiso       1.00
       N16          N  0.2558348  0.7911532  0.5123371    0.00000       Uiso       1.00
      C128          C  0.2804236  0.8140117  0.5269272    0.00000       Uiso       1.00
       H74          H  0.3507724  0.7717872  0.3051571    0.00000       Uiso       1.00
       H75          H  0.3060296  0.7318104  0.2899432    0.00000       Uiso       1.00
       H76          H  0.2723992  0.8357294  0.5900835    0.00000       Uiso       1.00
