data_crystal

_cell_length_a    15.83880
_cell_length_b    15.83880
_cell_length_c    23.34600
_cell_angle_alpha 90.00000
_cell_angle_beta  90.00000
_cell_angle_gamma 90.00000

_space_group_name_Hall 'P 1'
_space_group_name_H-M_alt  'P 1'

loop_
_symmetry_equiv_pos_as_xyz
'x,y,z' 

loop_
_atom_site_label
_atom_site_type_symbol
_atom_site_fract_x
_atom_site_fract_y
_atom_site_fract_z
C          C       0.84786   0.86735   0.97125 
C          C       0.15214   0.13265   0.97125 
C          C       0.13265   0.84786   0.47125 
C          C       0.86735   0.15214   0.47125 
C          C       0.15214   0.13265   0.02875 
C          C       0.84786   0.86735   0.02875 
C          C       0.86735   0.15214   0.52875 
C          C       0.13265   0.84786   0.52875 
C          C       0.44247   0.44462   0.78847 
C          C       0.55753   0.55538   0.78847 
C          C       0.55538   0.44247   0.28847 
C          C       0.44462   0.55753   0.28847 
C          C       0.55753   0.55538   0.21153 
C          C       0.44247   0.44462   0.21153 
C          C       0.44462   0.55753   0.71153 
C          C       0.55538   0.44247   0.71153 
S          S       0.06638   0.92241   0.43404 
S          S       0.93362   0.07759   0.43404 
S          S       0.07759   0.06638   0.93404 
S          S       0.92241   0.93362   0.93404 
S          S       0.93362   0.07759   0.56596 
S          S       0.06638   0.92241   0.56596 
S          S       0.92241   0.93362   0.06596 
S          S       0.07759   0.06638   0.06596 
C          C       0.18017   0.78663   0.43640 
C          C       0.81983   0.21337   0.43640 
C          C       0.21337   0.18017   0.93640 
C          C       0.78663   0.81983   0.93640 
C          C       0.81983   0.21337   0.56360 
C          C       0.18017   0.78663   0.56360 
C          C       0.78663   0.81983   0.06360 
C          C       0.21337   0.18017   0.06360 
C          C       0.26855   0.78854   0.43476 
C          C       0.73145   0.21146   0.43476 
C          C       0.21146   0.26855   0.93476 
C          C       0.78854   0.73145   0.93476 
C          C       0.73145   0.21146   0.56524 
C          C       0.26855   0.78854   0.56524 
C          C       0.78854   0.73145   0.06524 
C          C       0.21146   0.26855   0.06524 
C          C       0.31281   0.73235   0.39973 
C          C       0.68719   0.26765   0.39973 
C          C       0.26765   0.31281   0.89973 
C          C       0.73235   0.68719   0.89973 
C          C       0.68719   0.26765   0.60027 
C          C       0.31281   0.73235   0.60027 
C          C       0.73235   0.68719   0.10027 
C          C       0.26765   0.31281   0.10027 
C          C       0.26893   0.67425   0.36558 
C          C       0.73107   0.32575   0.36558 
C          C       0.32575   0.26893   0.86558 
C          C       0.67425   0.73107   0.86558 
C          C       0.73107   0.32575   0.63442 
C          C       0.26893   0.67425   0.63442 
C          C       0.67425   0.73107   0.13442 
C          C       0.32575   0.26893   0.13442 
C          C       0.18069   0.67316   0.36658 
C          C       0.81931   0.32684   0.36658 
C          C       0.32684   0.18069   0.86658 
C          C       0.67316   0.81931   0.86658 
C          C       0.81931   0.32684   0.63342 
C          C       0.18069   0.67316   0.63342 
C          C       0.67316   0.81931   0.13342 
C          C       0.32684   0.18069   0.13342 
C          C       0.13645   0.72931   0.40169 
C          C       0.86355   0.27069   0.40169 
C          C       0.27069   0.13645   0.90169 
C          C       0.72931   0.86355   0.90169 
C          C       0.86355   0.27069   0.59831 
C          C       0.13645   0.72931   0.59831 
C          C       0.72931   0.86355   0.09831 
C          C       0.27069   0.13645   0.09831 
N          N       0.39554   0.61351   0.32565 
N          N       0.60446   0.38649   0.32565 
N          N       0.38649   0.39554   0.82565 
N          N       0.61351   0.60446   0.82565 
N          N       0.60446   0.38649   0.67435 
N          N       0.39554   0.61351   0.67435 
N          N       0.61351   0.60446   0.17435 
N          N       0.38649   0.39554   0.17435 
C          C       0.31370   0.61544   0.32781 
C          C       0.68630   0.38456   0.32781 
C          C       0.38456   0.31370   0.82781 
C          C       0.61544   0.68630   0.82781 
C          C       0.68630   0.38456   0.67219 
C          C       0.31370   0.61544   0.67219 
C          C       0.61544   0.68630   0.17219 
C          C       0.38456   0.31370   0.17219 
C          C       0.61183   0.49810   0.75025 
C          C       0.38817   0.50190   0.75025 
C          C       0.50190   0.61183   0.25025 
C          C       0.49810   0.38817   0.25025 
C          C       0.38817   0.50190   0.24975 
C          C       0.61183   0.49810   0.24975 
C          C       0.49810   0.38817   0.74975 
C          C       0.50190   0.61183   0.74975 
H          H       0.30464   0.83605   0.46207 
H          H       0.69536   0.16395   0.46207 
H          H       0.16395   0.30464   0.96207 
H          H       0.83605   0.69536   0.96207 
H          H       0.69536   0.16395   0.53793 
H          H       0.30464   0.83605   0.53793 
H          H       0.83605   0.69536   0.03793 
H          H       0.16395   0.30464   0.03793 
H          H       0.38476   0.73369   0.39887 
H          H       0.61524   0.26631   0.39887 
H          H       0.26631   0.38476   0.89887 
H          H       0.73369   0.61524   0.89887 
H          H       0.61524   0.26631   0.60113 
H          H       0.38476   0.73369   0.60113 
H          H       0.73369   0.61524   0.10113 
H          H       0.26631   0.38476   0.10113 
H          H       0.14458   0.62637   0.33872 
H          H       0.85542   0.37363   0.33872 
H          H       0.37363   0.14458   0.83872 
H          H       0.62637   0.85542   0.83872 
H          H       0.85542   0.37363   0.66128 
H          H       0.14458   0.62637   0.66128 
H          H       0.62637   0.85542   0.16128 
H          H       0.37363   0.14458   0.16128 
H          H       0.06448   0.72832   0.40198 
H          H       0.93552   0.27168   0.40198 
H          H       0.27168   0.06448   0.90198 
H          H       0.72832   0.93552   0.90198 
H          H       0.93552   0.27168   0.59802 
H          H       0.06448   0.72832   0.59802 
H          H       0.72832   0.93552   0.09802 
H          H       0.27168   0.06448   0.09802 
H          H       0.27656   0.57006   0.29950 
H          H       0.72344   0.42994   0.29950 
H          H       0.42994   0.27656   0.79950 
H          H       0.57006   0.72344   0.79950 
H          H       0.72344   0.42994   0.70050 
H          H       0.27656   0.57006   0.70050 
H          H       0.57006   0.72344   0.20050 
H          H       0.42994   0.27656   0.20050 
H          H       0.65258   0.45559   0.77833 
H          H       0.34742   0.54441   0.77833 
H          H       0.54441   0.65258   0.27833 
H          H       0.45559   0.34742   0.27833 
H          H       0.34742   0.54441   0.22167 
H          H       0.65258   0.45559   0.22167 
H          H       0.45559   0.34742   0.72167 
H          H       0.54441   0.65258   0.72167 
H          H       0.65437   0.53876   0.72213 
H          H       0.34563   0.46124   0.72213 
H          H       0.46124   0.65437   0.22213 
H          H       0.53876   0.34563   0.22213 
H          H       0.34563   0.46124   0.27787 
H          H       0.65437   0.53876   0.27787 
H          H       0.53876   0.34563   0.77787 
H          H       0.46124   0.65437   0.77787 
H          H       0.45929   0.54228   0.85419 
H          H       0.54071   0.45772   0.85419 
H          H       0.45772   0.45929   0.35419 
H          H       0.54228   0.54071   0.35419 
H          H       0.54071   0.45772   0.14581 
H          H       0.45929   0.54228   0.14581 
H          H       0.54228   0.54071   0.64581 
H          H       0.45772   0.45929   0.64581 
C          C       0.02776   0.96777   0.50000 
C          C       0.97224   0.03223   0.50000 
C          C       0.03223   0.02776   0.00000 
C          C       0.96777   0.97224   0.00000 
C          C       0.50000   0.50000   0.82593 
C          C       0.50000   0.50000   0.32593 
C          C       0.50000   0.50000   0.17407 
C          C       0.50000   0.50000   0.67407 
