data_crystal

_cell_length_a    21.54250
_cell_length_b    21.54250
_cell_length_c    25.75120
_cell_angle_alpha 90.00000
_cell_angle_beta  90.00000
_cell_angle_gamma 90.00000

_space_group_name_Hall 'P 1'
_space_group_name_H-M_alt  'P 1'

loop_
_symmetry_equiv_pos_as_xyz
'x,y,z' 

loop_
_atom_site_label
_atom_site_type_symbol
_atom_site_fract_x
_atom_site_fract_y
_atom_site_fract_z
C          C       0.48363   0.11125   0.36230 
C          C       0.44477   0.81715   0.36230 
C          C       0.81715   0.48363   0.86230 
C          C       0.11125   0.44477   0.86230 
C          C       0.44477   0.81715   0.41436 
C          C       0.48363   0.11125   0.41436 
C          C       0.11125   0.44477   0.91436 
C          C       0.81715   0.48363   0.91436 
C          C       0.54555   0.19869   0.32509 
C          C       0.38285   0.72971   0.32509 
C          C       0.72971   0.54555   0.82509 
C          C       0.19869   0.38285   0.82509 
C          C       0.38285   0.72971   0.45157 
C          C       0.54555   0.19869   0.45157 
C          C       0.19869   0.38285   0.95157 
C          C       0.72971   0.54555   0.95157 
C          C       0.54965   0.25307   0.29569 
C          C       0.37875   0.67533   0.29569 
C          C       0.67533   0.54965   0.79569 
C          C       0.25307   0.37875   0.79569 
C          C       0.37875   0.67533   0.48097 
C          C       0.54965   0.25307   0.48097 
C          C       0.25307   0.37875   0.98097 
C          C       0.67533   0.54965   0.98097 
C          C       0.49698   0.27699   0.27060 
C          C       0.43142   0.65141   0.27060 
C          C       0.65141   0.49698   0.77060 
C          C       0.27699   0.43142   0.77060 
C          C       0.43142   0.65141   0.50606 
C          C       0.49698   0.27699   0.50606 
C          C       0.27699   0.43142   0.00606 
C          C       0.65141   0.49698   0.00606 
C          C       0.43990   0.24579   0.27563 
C          C       0.48850   0.68261   0.27563 
C          C       0.68261   0.43990   0.77563 
C          C       0.24579   0.48850   0.77563 
C          C       0.48850   0.68261   0.50103 
C          C       0.43990   0.24579   0.50103 
C          C       0.24579   0.48850   0.00103 
C          C       0.68261   0.43990   0.00103 
C          C       0.43565   0.19197   0.30585 
C          C       0.49275   0.73643   0.30585 
C          C       0.73643   0.43565   0.80585 
C          C       0.19197   0.49275   0.80585 
C          C       0.49275   0.73643   0.47081 
C          C       0.43565   0.19197   0.47081 
C          C       0.19197   0.49275   0.97081 
C          C       0.73643   0.43565   0.97081 
C          C       0.48831   0.16853   0.33116 
C          C       0.44009   0.75987   0.33116 
C          C       0.75987   0.48831   0.83116 
C          C       0.16853   0.44009   0.83116 
C          C       0.44009   0.75987   0.44550 
C          C       0.48831   0.16853   0.44550 
C          C       0.16853   0.44009   0.94550 
C          C       0.75987   0.48831   0.94550 
C          C       0.46420   0.46420   0.20743 
C          C       0.46420   0.46420   0.70743 
C          C       0.46420   0.46420   0.56923 
C          C       0.46420   0.46420   0.06923 
C          C       0.50273   0.33417   0.23946 
C          C       0.42567   0.59423   0.23946 
C          C       0.59423   0.50273   0.73946 
C          C       0.33417   0.42567   0.73946 
C          C       0.42567   0.59423   0.53720 
C          C       0.50273   0.33417   0.53720 
C          C       0.33417   0.42567   0.03720 
C          C       0.59423   0.50273   0.03720 
C          C       0.46021   0.93316   0.38833 
C          C       0.46819   0.99524   0.38833 
C          C       0.99524   0.46021   0.88833 
C          C       0.93316   0.46819   0.88833 
C          C       0.40535   0.46563   0.10335 
C          C       0.52305   0.46277   0.10335 
C          C       0.46277   0.40535   0.60335 
C          C       0.46563   0.52305   0.60335 
C          C       0.52305   0.46277   0.67331 
C          C       0.40535   0.46563   0.67331 
C          C       0.46563   0.52305   0.17331 
C          C       0.46277   0.40535   0.17331 
C          C       0.40399   0.40739   0.13893 
C          C       0.52441   0.52101   0.13893 
C          C       0.52101   0.40399   0.63893 
C          C       0.40739   0.52441   0.63893 
C          C       0.52441   0.52101   0.63773 
C          C       0.40399   0.40739   0.63773 
C          C       0.40739   0.52441   0.13773 
C          C       0.52101   0.40399   0.13773 
N          N       0.46006   0.34985   0.20622 
N          N       0.46834   0.57855   0.20622 
N          N       0.57855   0.46006   0.70622 
N          N       0.34985   0.46834   0.70622 
N          N       0.46834   0.57855   0.57044 
N          N       0.46006   0.34985   0.57044 
N          N       0.34985   0.46834   0.07044 
N          N       0.57855   0.46006   0.07044 
S          S       0.45480   0.88966   0.44822 
S          S       0.47360   0.03874   0.44822 
S          S       0.03874   0.45480   0.94822 
S          S       0.88966   0.47360   0.94822 
S          S       0.47360   0.03874   0.32844 
S          S       0.45480   0.88966   0.32844 
S          S       0.88966   0.47360   0.82844 
S          S       0.03874   0.45480   0.82844 
H          H       0.39855   0.26325   0.25665 
H          H       0.52985   0.66515   0.25665 
H          H       0.66515   0.39855   0.75665 
H          H       0.26325   0.52985   0.75665 
H          H       0.52985   0.66515   0.52001 
H          H       0.39855   0.26325   0.52001 
H          H       0.26325   0.52985   0.02001 
H          H       0.66515   0.39855   0.02001 
H          H       0.39128   0.16867   0.30966 
H          H       0.53712   0.75973   0.30966 
H          H       0.75973   0.39128   0.80966 
H          H       0.16867   0.53712   0.80966 
H          H       0.53712   0.75973   0.46700 
H          H       0.39128   0.16867   0.46700 
H          H       0.16867   0.53712   0.96700 
H          H       0.75973   0.39128   0.96700 
H          H       0.54401   0.36250   0.24389 
H          H       0.38439   0.56590   0.24389 
H          H       0.56590   0.54401   0.74389 
H          H       0.36250   0.38439   0.74389 
H          H       0.38439   0.56590   0.53277 
H          H       0.54401   0.36250   0.53277 
H          H       0.36250   0.38439   0.03277 
H          H       0.56590   0.54401   0.03277 
H          H       0.36170   0.40837   0.16380 
H          H       0.56670   0.52003   0.16380 
H          H       0.52003   0.36170   0.66380 
H          H       0.40837   0.56670   0.66380 
H          H       0.56670   0.52003   0.61286 
H          H       0.36170   0.40837   0.61286 
H          H       0.40837   0.56670   0.11286 
H          H       0.52003   0.36170   0.11286 
H          H       0.40183   0.36428   0.11521 
H          H       0.52657   0.56412   0.11521 
H          H       0.56412   0.40183   0.61521 
H          H       0.36428   0.52657   0.61521 
H          H       0.52657   0.56412   0.66145 
H          H       0.40183   0.36428   0.66145 
H          H       0.36428   0.52657   0.16145 
H          H       0.56412   0.40183   0.16145 
H          H       0.58710   0.17992   0.34277 
H          H       0.34130   0.74848   0.34277 
H          H       0.74848   0.58710   0.84277 
H          H       0.17992   0.34130   0.84277 
H          H       0.34130   0.74848   0.43389 
H          H       0.58710   0.17992   0.43389 
H          H       0.17992   0.34130   0.93389 
H          H       0.74848   0.58710   0.93389 
H          H       0.59422   0.27598   0.29188 
H          H       0.33418   0.65242   0.29188 
H          H       0.65242   0.59422   0.79188 
H          H       0.27598   0.33418   0.79188 
H          H       0.33418   0.65242   0.48478 
H          H       0.59422   0.27598   0.48478 
H          H       0.27598   0.33418   0.98478 
H          H       0.65242   0.59422   0.98478 
H          H       0.46321   0.42366   0.73142 
H          H       0.46519   0.50511   0.73098 
H          H       0.50474   0.46321   0.23142 
H          H       0.42329   0.46519   0.23098 
H          H       0.46519   0.50474   0.04524 
H          H       0.46321   0.42329   0.04568 
H          H       0.42366   0.46519   0.54524 
H          H       0.50511   0.46321   0.54568 
