data_crystal
 
_cell_length_a    31.99820
_cell_length_b    31.52910
_cell_length_c    8.56804
_cell_angle_alpha 90.40390
_cell_angle_beta  89.91880
_cell_angle_gamma 92.45250
 
_space_group_name_Hall 'P 1'
_space_group_name_H-M_alt  'P 1'
 
loop_
_symmetry_equiv_pos_as_xyz
 'x,y,z' 
 
loop_
_atom_site_label
_atom_site_type_symbol
_atom_site_fract_x
_atom_site_fract_y
_atom_site_fract_z
H          H       0.15384   0.28197   0.00912 
H          H       0.14427   0.11251   0.02055 
H          H       0.19835   0.05418   0.03524 
H          H       0.42210   0.09479   0.03546 
H          H       0.43176   0.26400   0.02733 
H          H       0.37757   0.32230   0.02460 
H          H       0.26137   0.16835   0.02078 
H          H       0.31483   0.20791   0.01430 
H          H       0.13546   0.14962   0.25176 
H          H       0.06202   0.13830   0.25010 
H          H       0.44412   0.22636   0.25010 
H          H       0.51825   0.23278   0.24362 
H          H       0.24944   0.35022   0.16411 
H          H       0.32793   0.03306   0.20792 
H          H       0.33278   0.95902   0.18688 
H          H       0.21389   0.33095   0.44777 
H          H       0.36260   0.04510   0.47805 
H          H       0.12093   0.24336   0.37983 
H          H       0.04729   0.23819   0.40716 
H          H       0.45096   0.13195   0.37776 
H          H       0.52504   0.13188   0.40223 
H          H       0.34476   0.33911   0.30031 
H          H       0.35264   0.41371   0.29878 
H          H       0.23337   0.02978   0.33690 
H          H       0.23229   0.95521   0.34434 
H          H       0.25161   0.42481   0.13447 
H          H       0.34430   0.54305   0.14006 
H          H       0.35014   0.61713   0.18198 
H          H       0.34350   0.74028   0.22492 
H          H       0.41562   0.75757   0.22449 
H          H       0.23021   0.75451   0.23703 
H          H       0.23499   0.63408   0.22062 
H          H       0.23052   0.82942   0.23218 
H          H       0.16149   0.62176   0.21535 
H          H       0.23946   0.56221   0.32992 
H          H       0.24844   0.63619   0.35205 
H          H       0.36696   0.64290   0.37617 
H          H       0.43954   0.65600   0.40016 
H          H       0.33179   0.75318   0.39855 
H          H       0.21872   0.73622   0.38713 
H          H       0.33551   0.82803   0.41506 
H          H       0.14505   0.72685   0.40047 
H          H       0.93614   0.61434   0.00912 
H          H       0.94584   0.78379   0.02055 
H          H       0.89180   0.84216   0.03524 
H          H       0.66802   0.80172   0.03546 
H          H       0.65823   0.63251   0.02733 
H          H       0.71238   0.57417   0.02460 
H          H       0.82869   0.72804   0.02078 
H          H       0.77521   0.68851   0.01430 
H          H       0.95462   0.74667   0.25176 
H          H       0.02397   0.75669   0.25010 
H          H       0.64590   0.67016   0.25010 
H          H       0.57176   0.66380   0.24362 
H          H       0.84049   0.54616   0.16411 
H          H       0.76224   0.86337   0.20792 
H          H       0.75476   0.93781   0.18688 
H          H       0.87605   0.56540   0.44777 
H          H       0.72756   0.85137   0.47805 
H          H       0.96908   0.65292   0.37983 
H          H       0.03862   0.65679   0.40716 
H          H       0.63914   0.76458   0.37776 
H          H       0.56505   0.76470   0.40223 
H          H       0.74518   0.55733   0.30031 
H          H       0.73725   0.48275   0.29878 
H          H       0.85680   0.86658   0.33690 
H          H       0.85526   0.94155   0.34434 
H          H       0.74548   0.35342   0.14006 
H          H       0.73959   0.27935   0.18198 
H          H       0.74614   0.15619   0.22492 
H          H       0.67401   0.13896   0.22449 
H          H       0.85942   0.14187   0.23703 
H          H       0.85473   0.26231   0.22062 
H          H       0.85905   0.06697   0.23218 
H          H       0.92824   0.27457   0.21535 
H          H       0.85031   0.33419   0.32992 
H          H       0.84127   0.26021   0.35205 
H          H       0.72275   0.25359   0.37617 
H          H       0.65016   0.24054   0.40016 
H          H       0.75784   0.14328   0.39855 
H          H       0.87092   0.16016   0.38713 
H          H       0.75406   0.06844   0.41506 
H          H       0.94460   0.16947   0.40047 
C          C       0.18572   0.27282   0.00260 
C          C       0.20310   0.23205   0.02085 
C          C       0.18016   0.19547   0.03633 
C          C       0.19802   0.15578   0.02897 
C          C       0.17703   0.11744   0.02666 
C          C       0.20544   0.08670   0.02884 
C          C       0.24492   0.10489   0.02207 
C          C       0.39025   0.10382   0.02424 
C          C       0.32162   0.10159   0.00671 
C          C       0.39573   0.18120   0.04163 
C          C       0.37802   0.22082   0.03010 
C          C       0.39895   0.25911   0.02715 
C          C       0.37047   0.28975   0.02061 
C          C       0.33106   0.27142   0.00973 
C          C       0.28242   0.08347   0.01223 
C          C       0.37270   0.14467   0.03312 
C          C       0.13520   0.19617   0.05624 
C          C       0.11672   0.16783   0.16577 
C          C       0.07492   0.16186   0.16805 
C          C       0.04927   0.18676   0.07038 
C          C       0.44074   0.17950   0.05650 
C          C       0.46130   0.20693   0.16337 
C          C       0.50343   0.21003   0.16321 
C          C       0.52696   0.18312   0.06604 
C          C       0.27068   0.36353   0.07333 
C          C       0.27239   0.40590   0.05992 
C          C       0.28122   0.03805   0.01514 
C          C       0.30893   0.01651   0.11769 
C          C       0.31007   0.97467   0.10890 
C          C       0.28355   0.95194   0.00692 
C          C       0.25437   0.27476   0.49603 
C          C       0.21704   0.29860   0.47978 
C          C       0.35906   0.07768   0.00471 
C          C       0.29364   0.29275   0.49841 
C          C       0.10883   0.22174   0.47212 
C          C       0.06671   0.21847   0.48460 
C          C       0.46494   0.15249   0.46981 
C          C       0.50719   0.15281   0.48042 
C          C       0.29644   0.33807   0.48679 
C          C       0.32543   0.35740   0.38348 
C          C       0.32971   0.39968   0.38014 
C          C       0.25453   0.01470   0.42377 
C          C       0.25297   0.97253   0.42537 
C          C       0.30235   0.42456   0.46891 
C          C       0.10330   0.67111   0.06181 
C          C       0.36368   0.72297   0.14169 
C          C       0.40498   0.73226   0.14567 
C          C       0.43326   0.70822   0.05761 
C          C       0.28175   0.74741   0.06792 
C          C       0.25298   0.77018   0.15974 
C          C       0.21587   0.65359   0.14080 
C          C       0.25335   0.81266   0.15896 
C          C       0.17404   0.64699   0.14105 
C          C       0.28359   0.83417   0.07152 
C          C       0.29071   0.54701   0.49051 
C          C       0.26381   0.57420   0.41031 
C          C       0.32267   0.56361   0.08584 
C          C       0.26836   0.61625   0.42631 
C          C       0.32616   0.60561   0.10719 
C          C       0.29864   0.63303   0.03069 
C          C       0.30750   0.67674   0.05151 
C          C       0.34832   0.69088   0.05035 
C          C       0.27347   0.70432   0.06192 
C          C       0.37696   0.66747   0.46015 
C          C       0.41829   0.67526   0.47126 
C          C       0.23315   0.68604   0.05761 
C          C       0.31082   0.76927   0.48267 
C          C       0.20661   0.71155   0.46591 
C          C       0.31235   0.81170   0.48785 
C          C       0.16488   0.70599   0.47138 
C          C       0.14769   0.67366   0.06347 
C          C       0.28471   0.50272   0.47695 
C          C       0.47794   0.70953   0.05126 
C          C       0.27885   0.87849   0.06209 
C          C       0.90427   0.62350   0.00260 
C          C       0.88691   0.66429   0.02085 
C          C       0.90989   0.70085   0.03633 
C          C       0.89206   0.74055   0.02897 
C          C       0.91307   0.77888   0.02666 
C          C       0.88469   0.80965   0.02884 
C          C       0.84519   0.79149   0.02207 
C          C       0.69987   0.79266   0.02424 
C          C       0.76850   0.79485   0.00671 
C          C       0.69432   0.71529   0.04163 
C          C       0.71200   0.67566   0.03010 
C          C       0.69104   0.63738   0.02715 
C          C       0.71950   0.60672   0.02061 
C          C       0.75893   0.62502   0.00973 
C          C       0.80771   0.81293   0.01223 
C          C       0.71738   0.75179   0.03312 
C          C       0.95485   0.70012   0.05624 
C          C       0.97334   0.72844   0.16577 
C          C       0.01105   0.73315   0.16805 
C          C       0.03668   0.70822   0.07038 
C          C       0.64931   0.71702   0.05650 
C          C       0.62874   0.68961   0.16337 
C          C       0.58660   0.68654   0.16321 
C          C       0.56310   0.71347   0.06604 
C          C       0.81924   0.53287   0.07333 
C          C       0.81750   0.49049   0.05992 
C          C       0.80894   0.85835   0.01514 
C          C       0.78125   0.87992   0.11769 
C          C       0.77746   0.92214   0.10890 
C          C       0.80400   0.94485   0.00692 
C          C       0.83562   0.62162   0.49603 
C          C       0.87293   0.59775   0.47978 
C          C       0.73107   0.81878   0.00471 
C          C       0.79634   0.60366   0.49841 
C          C       0.98120   0.67453   0.47212 
C          C       0.01921   0.67653   0.48460 
C          C       0.62513   0.74405   0.46981 
C          C       0.58288   0.74376   0.48042 
C          C       0.79350   0.55834   0.48679 
C          C       0.76449   0.53903   0.38348 
C          C       0.76018   0.49676   0.38014 
C          C       0.83565   0.88168   0.42377 
C          C       0.83456   0.92424   0.42537 
C          C       0.78753   0.47186   0.46891 
C          C       0.98639   0.22518   0.06181 
C          C       0.72597   0.17352   0.14169 
C          C       0.68466   0.16426   0.14567 
C          C       0.65640   0.18832   0.05761 
C          C       0.80788   0.14901   0.06792 
C          C       0.83663   0.12623   0.15974 
C          C       0.87384   0.24278   0.14080 
C          C       0.83623   0.08375   0.15896 
C          C       0.91566   0.24935   0.14105 
C          C       0.80597   0.06225   0.07152 
C          C       0.79907   0.34942   0.49051 
C          C       0.82595   0.32221   0.41031 
C          C       0.76710   0.33285   0.08584 
C          C       0.82137   0.28016   0.42631 
C          C       0.76358   0.29085   0.10719 
C          C       0.79108   0.26341   0.03069 
C          C       0.78219   0.21970   0.05151 
C          C       0.74135   0.20560   0.05035 
C          C       0.81620   0.19210   0.06192 
C          C       0.71274   0.22902   0.46015 
C          C       0.67139   0.22127   0.47126 
C          C       0.85652   0.21035   0.05761 
C          C       0.77880   0.12718   0.48267 
C          C       0.88305   0.18481   0.46591 
C          C       0.77723   0.08474   0.48785 
C          C       0.92478   0.19035   0.47138 
C          C       0.94199   0.22266   0.06347 
C          C       0.80511   0.39371   0.47695 
C          C       0.61172   0.18704   0.05126 
C          C       0.81068   0.01793   0.06209 
N          N       0.24460   0.23455   0.01209 
N          N       0.23876   0.14650   0.02282 
N          N       0.33121   0.14201   0.02342 
N          N       0.33730   0.22988   0.01785 
N          N       0.28627   0.90921   0.00205 
N          N       0.56962   0.18659   0.06223 
N          N       0.00700   0.17996   0.06722 
N          N       0.30687   0.46717   0.46761 
N          N       0.84541   0.66182   0.01209 
N          N       0.85132   0.74987   0.02282 
N          N       0.75887   0.75443   0.02342 
N          N       0.75272   0.66656   0.01785 
N          N       0.80131   0.98759   0.00205 
N          N       0.52044   0.71003   0.06223 
N          N       0.07988   0.70465   0.06722 
N          N       0.78298   0.42925   0.46761 
H          H       0.83967   0.47664   0.13492 
H          H       0.15384   0.28197   0.50912 
H          H       0.14427   0.11251   0.52055 
H          H       0.19835   0.05418   0.53524 
H          H       0.42210   0.09479   0.53546 
H          H       0.43176   0.26400   0.52733 
H          H       0.37757   0.32230   0.52460 
H          H       0.26137   0.16835   0.52078 
H          H       0.31483   0.20791   0.51430 
H          H       0.13546   0.14962   0.75176 
H          H       0.06201   0.13830   0.75010 
H          H       0.44412   0.22636   0.75010 
H          H       0.51825   0.23278   0.74362 
H          H       0.24944   0.35022   0.66411 
H          H       0.32793   0.03306   0.70792 
H          H       0.33278   0.95902   0.68688 
H          H       0.21389   0.33095   0.94777 
H          H       0.36260   0.04510   0.97805 
H          H       0.12093   0.24336   0.87983 
H          H       0.04729   0.23819   0.90716 
H          H       0.45096   0.13195   0.87776 
H          H       0.52504   0.13188   0.90223 
H          H       0.34476   0.33911   0.80031 
H          H       0.35264   0.41371   0.79878 
H          H       0.23337   0.02978   0.83690 
H          H       0.23229   0.95521   0.84434 
H          H       0.25161   0.42481   0.63447 
H          H       0.34430   0.54305   0.64006 
H          H       0.35014   0.61713   0.68198 
H          H       0.34350   0.74028   0.72492 
H          H       0.41562   0.75757   0.72449 
H          H       0.23021   0.75451   0.73703 
H          H       0.23499   0.63408   0.72062 
H          H       0.23052   0.82942   0.73218 
H          H       0.16149   0.62176   0.71535 
H          H       0.23946   0.56221   0.82992 
H          H       0.24844   0.63619   0.85205 
H          H       0.36696   0.64290   0.87617 
H          H       0.43954   0.65600   0.90016 
H          H       0.33179   0.75318   0.89855 
H          H       0.21872   0.73622   0.88713 
H          H       0.33551   0.82803   0.91506 
H          H       0.14505   0.72685   0.90047 
H          H       0.93614   0.61434   0.50912 
H          H       0.94584   0.78379   0.52055 
H          H       0.89180   0.84216   0.53524 
H          H       0.66802   0.80172   0.53546 
H          H       0.65823   0.63251   0.52733 
H          H       0.71238   0.57417   0.52460 
H          H       0.82869   0.72804   0.52078 
H          H       0.77521   0.68851   0.51430 
H          H       0.95462   0.74667   0.75176 
H          H       0.02397   0.75669   0.75010 
H          H       0.64590   0.67016   0.75010 
H          H       0.57176   0.66380   0.74362 
H          H       0.84049   0.54616   0.66411 
H          H       0.76224   0.86337   0.70792 
H          H       0.75476   0.93781   0.68688 
H          H       0.87605   0.56540   0.94777 
H          H       0.72756   0.85137   0.97805 
H          H       0.96908   0.65292   0.87983 
H          H       0.03862   0.65679   0.90716 
H          H       0.63914   0.76458   0.87776 
H          H       0.56505   0.76470   0.90223 
H          H       0.74518   0.55733   0.80031 
H          H       0.73725   0.48275   0.79878 
H          H       0.85680   0.86658   0.83690 
H          H       0.85526   0.94155   0.84434 
H          H       0.74548   0.35342   0.64006 
H          H       0.73959   0.27935   0.68198 
H          H       0.74614   0.15619   0.72492 
H          H       0.67401   0.13896   0.72449 
H          H       0.85942   0.14187   0.73703 
H          H       0.85473   0.26231   0.72062 
H          H       0.85905   0.06697   0.73218 
H          H       0.92824   0.27457   0.71535 
H          H       0.85031   0.33419   0.82992 
H          H       0.84127   0.26021   0.85205 
H          H       0.72275   0.25359   0.87617 
H          H       0.65016   0.24054   0.90016 
H          H       0.75784   0.14328   0.89855 
H          H       0.87092   0.16016   0.88713 
H          H       0.75406   0.06844   0.91506 
H          H       0.94460   0.16947   0.90047 
C          C       0.18572   0.27282   0.50260 
C          C       0.20310   0.23205   0.52085 
C          C       0.18016   0.19547   0.53633 
C          C       0.19802   0.15578   0.52897 
C          C       0.17703   0.11744   0.52666 
C          C       0.20544   0.08670   0.52884 
C          C       0.24492   0.10489   0.52207 
C          C       0.39025   0.10382   0.52424 
C          C       0.32162   0.10159   0.50671 
C          C       0.39573   0.18120   0.54163 
C          C       0.37802   0.22082   0.53010 
C          C       0.39895   0.25911   0.52715 
C          C       0.37047   0.28975   0.52061 
C          C       0.33106   0.27142   0.50973 
C          C       0.28242   0.08347   0.51223 
C          C       0.37270   0.14467   0.53312 
C          C       0.13520   0.19617   0.55624 
C          C       0.11672   0.16783   0.66577 
C          C       0.07492   0.16186   0.66805 
C          C       0.04927   0.18676   0.57038 
C          C       0.44074   0.17950   0.55650 
C          C       0.46130   0.20693   0.66337 
C          C       0.50343   0.21003   0.66321 
C          C       0.52696   0.18312   0.56604 
C          C       0.27068   0.36353   0.57333 
C          C       0.27239   0.40590   0.55993 
C          C       0.28122   0.03805   0.51514 
C          C       0.30893   0.01651   0.61769 
C          C       0.31007   0.97467   0.60890 
C          C       0.28355   0.95194   0.50692 
C          C       0.25437   0.27476   0.99603 
C          C       0.21704   0.29860   0.97978 
C          C       0.35906   0.07768   0.50471 
C          C       0.29364   0.29275   0.99841 
C          C       0.10883   0.22174   0.97212 
C          C       0.06671   0.21847   0.98460 
C          C       0.46494   0.15249   0.96981 
C          C       0.50719   0.15281   0.98042 
C          C       0.29644   0.33807   0.98679 
C          C       0.32543   0.35740   0.88348 
C          C       0.32971   0.39968   0.88014 
C          C       0.25453   0.01470   0.92377 
C          C       0.25297   0.97253   0.92537 
C          C       0.30235   0.42456   0.96891 
C          C       0.10330   0.67111   0.56181 
C          C       0.36368   0.72297   0.64169 
C          C       0.40498   0.73226   0.64567 
C          C       0.43326   0.70822   0.55761 
C          C       0.28175   0.74741   0.56792 
C          C       0.25298   0.77018   0.65974 
C          C       0.21586   0.65359   0.64080 
C          C       0.25335   0.81266   0.65896 
C          C       0.17405   0.64699   0.64105 
C          C       0.28359   0.83417   0.57152 
C          C       0.29071   0.54701   0.99051 
C          C       0.26381   0.57420   0.91031 
C          C       0.32267   0.56361   0.58584 
C          C       0.26836   0.61625   0.92631 
C          C       0.32616   0.60561   0.60719 
C          C       0.29864   0.63303   0.53069 
C          C       0.30750   0.67674   0.55151 
C          C       0.34832   0.69088   0.55035 
C          C       0.27347   0.70432   0.56192 
C          C       0.37696   0.66747   0.96015 
C          C       0.41829   0.67526   0.97126 
C          C       0.23315   0.68604   0.55761 
C          C       0.31082   0.76927   0.98267 
C          C       0.20661   0.71155   0.96591 
C          C       0.31235   0.81170   0.98785 
C          C       0.16488   0.70599   0.97138 
C          C       0.14769   0.67366   0.56347 
C          C       0.28471   0.50272   0.97695 
C          C       0.47794   0.70953   0.55126 
C          C       0.27885   0.87849   0.56209 
C          C       0.90427   0.62350   0.50260 
C          C       0.88691   0.66429   0.52085 
C          C       0.90989   0.70085   0.53633 
C          C       0.89206   0.74055   0.52897 
C          C       0.91307   0.77888   0.52666 
C          C       0.88469   0.80965   0.52884 
C          C       0.84519   0.79149   0.52207 
C          C       0.69987   0.79266   0.52424 
C          C       0.76850   0.79485   0.50671 
C          C       0.69432   0.71529   0.54163 
C          C       0.71200   0.67566   0.53010 
C          C       0.69104   0.63737   0.52715 
C          C       0.71950   0.60672   0.52061 
C          C       0.75893   0.62502   0.50973 
C          C       0.80771   0.81293   0.51223 
C          C       0.71738   0.75179   0.53312 
C          C       0.95485   0.70012   0.55624 
C          C       0.97334   0.72844   0.66577 
C          C       0.01105   0.73315   0.66805 
C          C       0.03668   0.70822   0.57038 
C          C       0.64931   0.71702   0.55650 
C          C       0.62874   0.68961   0.66337 
C          C       0.58660   0.68654   0.66321 
C          C       0.56310   0.71347   0.56604 
C          C       0.81924   0.53287   0.57333 
C          C       0.81750   0.49049   0.55993 
C          C       0.80894   0.85835   0.51514 
C          C       0.78125   0.87992   0.61769 
C          C       0.77746   0.92214   0.60890 
C          C       0.80400   0.94485   0.50692 
C          C       0.83562   0.62162   0.99603 
C          C       0.87293   0.59775   0.97978 
C          C       0.73107   0.81878   0.50471 
C          C       0.79634   0.60366   0.99841 
C          C       0.98120   0.67453   0.97212 
C          C       0.01921   0.67653   0.98460 
C          C       0.62513   0.74405   0.96981 
C          C       0.58288   0.74376   0.98042 
C          C       0.79350   0.55834   0.98679 
C          C       0.76449   0.53903   0.88348 
C          C       0.76018   0.49676   0.88014 
C          C       0.83565   0.88168   0.92377 
C          C       0.83456   0.92424   0.92537 
C          C       0.78753   0.47186   0.96891 
C          C       0.98639   0.22518   0.56181 
C          C       0.72597   0.17352   0.64169 
C          C       0.68466   0.16426   0.64567 
C          C       0.65640   0.18831   0.55761 
C          C       0.80788   0.14901   0.56792 
C          C       0.83663   0.12623   0.65974 
C          C       0.87384   0.24278   0.64080 
C          C       0.83623   0.08375   0.65896 
C          C       0.91566   0.24935   0.64105 
C          C       0.80597   0.06225   0.57152 
C          C       0.79907   0.34942   0.99051 
C          C       0.82595   0.32221   0.91031 
C          C       0.76710   0.33285   0.58584 
C          C       0.82137   0.28016   0.92631 
C          C       0.76358   0.29085   0.60719 
C          C       0.79108   0.26341   0.53069 
C          C       0.78219   0.21970   0.55151 
C          C       0.74135   0.20560   0.55035 
C          C       0.81620   0.19210   0.56192 
C          C       0.71273   0.22902   0.96015 
C          C       0.67139   0.22127   0.97126 
C          C       0.85652   0.21035   0.55761 
C          C       0.77879   0.12718   0.98267 
C          C       0.88305   0.18481   0.96591 
C          C       0.77723   0.08474   0.98785 
C          C       0.92478   0.19035   0.97138 
C          C       0.94199   0.22266   0.56347 
C          C       0.80511   0.39371   0.97695 
C          C       0.61172   0.18704   0.55126 
C          C       0.81068   0.01793   0.56209 
N          N       0.24460   0.23455   0.51209 
N          N       0.23876   0.14650   0.52282 
N          N       0.33121   0.14201   0.52342 
N          N       0.33730   0.22988   0.51785 
N          N       0.28627   0.90921   0.50205 
N          N       0.56962   0.18659   0.56223 
N          N       0.00700   0.17996   0.56722 
N          N       0.30687   0.46717   0.96761 
N          N       0.84541   0.66182   0.51209 
N          N       0.85132   0.74987   0.52282 
N          N       0.75887   0.75443   0.52342 
N          N       0.75272   0.66656   0.51785 
N          N       0.80131   0.98759   0.50205 
N          N       0.52044   0.71003   0.56223 
N          N       0.07988   0.70465   0.56722 
N          N       0.78298   0.42925   0.96761 
H          H       0.83967   0.47664   0.63492 
