data_crystal

_cell_length_a    18.86200
_cell_length_b    18.86200
_cell_length_c    42.33800
_cell_angle_alpha 90.00000
_cell_angle_beta  90.00000
_cell_angle_gamma 90.00000

_space_group_name_Hall 'P 1'
_space_group_name_H-M_alt  'P 1'

loop_
_symmetry_equiv_pos_as_xyz
'x,y,z' 

loop_
_atom_site_label
_atom_site_type_symbol
_atom_site_fract_x
_atom_site_fract_y
_atom_site_fract_z
C          C       0.58542   0.44198   0.46142 
C          C       0.41458   0.55802   0.46142 
C          C       0.44198   0.41458   0.53858 
C          C       0.55802   0.58542   0.53858 
C          C       0.91458   0.44198   0.28858 
C          C       0.08542   0.55802   0.28858 
C          C       0.05802   0.41458   0.21142 
C          C       0.94198   0.58542   0.21142 
C          C       0.08542   0.94198   0.96142 
C          C       0.91458   0.05802   0.96142 
C          C       0.94198   0.91458   0.03858 
C          C       0.05802   0.08542   0.03858 
C          C       0.41458   0.94198   0.78858 
C          C       0.58542   0.05802   0.78858 
C          C       0.55802   0.91458   0.71142 
C          C       0.44198   0.08542   0.71142 
C          C       0.64023   0.44346   0.43935 
C          C       0.35977   0.55654   0.43935 
C          C       0.44346   0.35977   0.56065 
C          C       0.55654   0.64023   0.56065 
C          C       0.85977   0.44346   0.31065 
C          C       0.14023   0.55654   0.31065 
C          C       0.05654   0.35977   0.18935 
C          C       0.94346   0.64023   0.18935 
C          C       0.14023   0.94346   0.93935 
C          C       0.85977   0.05654   0.93935 
C          C       0.94346   0.85977   0.06065 
C          C       0.05654   0.14023   0.06065 
C          C       0.35977   0.94346   0.81065 
C          C       0.64023   0.05654   0.81065 
C          C       0.55654   0.85977   0.68935 
C          C       0.44346   0.14023   0.68935 
C          C       0.75839   0.70486   0.59897 
C          C       0.24161   0.29514   0.59897 
C          C       0.70486   0.24161   0.40103 
C          C       0.29514   0.75839   0.40103 
C          C       0.74161   0.70486   0.15103 
C          C       0.25839   0.29514   0.15103 
C          C       0.79514   0.24161   0.34897 
C          C       0.20486   0.75839   0.34897 
C          C       0.25839   0.20486   0.09897 
C          C       0.74161   0.79514   0.09897 
C          C       0.20486   0.74161   0.90103 
C          C       0.79514   0.25839   0.90103 
C          C       0.24161   0.20486   0.65103 
C          C       0.75839   0.79514   0.65103 
C          C       0.29514   0.74161   0.84897 
C          C       0.70486   0.25839   0.84897 
C          C       0.82228   0.72718   0.61193 
C          C       0.17772   0.27282   0.61193 
C          C       0.72718   0.17772   0.38807 
C          C       0.27282   0.82228   0.38807 
C          C       0.67772   0.72718   0.13807 
C          C       0.32228   0.27282   0.13807 
C          C       0.77282   0.17772   0.36193 
C          C       0.22718   0.82228   0.36193 
C          C       0.32228   0.22718   0.11193 
C          C       0.67772   0.77282   0.11193 
C          C       0.22718   0.67772   0.88807 
C          C       0.77282   0.32228   0.88807 
C          C       0.17772   0.22718   0.63807 
C          C       0.82228   0.77282   0.63807 
C          C       0.27282   0.67772   0.86193 
C          C       0.72718   0.32228   0.86193 
C          C       0.56699   0.09724   0.72014 
C          C       0.43301   0.90276   0.72014 
C          C       0.09724   0.43301   0.27986 
C          C       0.90276   0.56699   0.27986 
C          C       0.93301   0.09724   0.02986 
C          C       0.06699   0.90276   0.02986 
C          C       0.40276   0.43301   0.47014 
C          C       0.59724   0.56699   0.47014 
C          C       0.06699   0.59724   0.22014 
C          C       0.93301   0.40276   0.22014 
C          C       0.59724   0.93301   0.77986 
C          C       0.40276   0.06699   0.77986 
C          C       0.43301   0.59724   0.52986 
C          C       0.56699   0.40276   0.52986 
C          C       0.90276   0.93301   0.97014 
C          C       0.09724   0.06699   0.97014 
C          C       0.56933   0.15194   0.69806 
C          C       0.43067   0.84806   0.69806 
C          C       0.15194   0.43067   0.30194 
C          C       0.84806   0.56933   0.30194 
C          C       0.93067   0.15194   0.05194 
C          C       0.06933   0.84806   0.05194 
C          C       0.34806   0.43067   0.44806 
C          C       0.65194   0.56933   0.44806 
C          C       0.06933   0.65194   0.19806 
C          C       0.93067   0.34806   0.19806 
C          C       0.65194   0.93067   0.80194 
C          C       0.34806   0.06933   0.80194 
C          C       0.43067   0.65194   0.55194 
C          C       0.56933   0.34806   0.55194 
C          C       0.84806   0.93067   0.94806 
C          C       0.15194   0.06933   0.94806 
C          C       0.37605   0.16038   0.67471 
C          C       0.62395   0.83962   0.67471 
C          C       0.16038   0.62395   0.32529 
C          C       0.83962   0.37605   0.32529 
C          C       0.12395   0.16038   0.07529 
C          C       0.87605   0.83962   0.07529 
C          C       0.33962   0.62395   0.42471 
C          C       0.66038   0.37605   0.42471 
C          C       0.87605   0.66038   0.17471 
C          C       0.12395   0.33962   0.17471 
C          C       0.66038   0.12395   0.82529 
C          C       0.33962   0.87605   0.82529 
C          C       0.62395   0.66038   0.57529 
C          C       0.37605   0.33962   0.57529 
C          C       0.83962   0.12395   0.92471 
C          C       0.16038   0.87605   0.92471 
N          N       0.37178   0.20587   0.65190 
N          N       0.62822   0.79413   0.65190 
N          N       0.20587   0.62822   0.34810 
N          N       0.79413   0.37178   0.34810 
N          N       0.12822   0.20587   0.09810 
N          N       0.87178   0.79413   0.09810 
N          N       0.29413   0.62822   0.40190 
N          N       0.70587   0.37178   0.40190 
N          N       0.87178   0.70587   0.15190 
N          N       0.12822   0.29413   0.15190 
N          N       0.70587   0.12822   0.84810 
N          N       0.29413   0.87178   0.84810 
N          N       0.62822   0.70587   0.59810 
N          N       0.37178   0.29413   0.59810 
N          N       0.79413   0.12822   0.90190 
N          N       0.20587   0.87178   0.90190 
C          C       0.30609   0.22730   0.63814 
C          C       0.69391   0.77270   0.63814 
C          C       0.22730   0.69391   0.36186 
C          C       0.77270   0.30609   0.36186 
C          C       0.19391   0.22730   0.11186 
C          C       0.80609   0.77270   0.11186 
C          C       0.27270   0.69391   0.38814 
C          C       0.72730   0.30609   0.38814 
C          C       0.80609   0.72730   0.13814 
C          C       0.19391   0.27270   0.13814 
C          C       0.72730   0.19391   0.86186 
C          C       0.27270   0.80609   0.86186 
C          C       0.69391   0.72730   0.61186 
C          C       0.30609   0.27270   0.61186 
C          C       0.77270   0.19391   0.88814 
C          C       0.22730   0.80609   0.88814 
C          C       0.56395   0.50299   0.47767 
C          C       0.43605   0.49701   0.47767 
C          C       0.50299   0.43605   0.52233 
C          C       0.49701   0.56395   0.52233 
C          C       0.93605   0.50299   0.27233 
C          C       0.06395   0.49701   0.27233 
C          C       0.99701   0.43605   0.22767 
C          C       0.00299   0.56395   0.22767 
C          C       0.06395   0.00299   0.97767 
C          C       0.93605   0.99701   0.97767 
C          C       0.00299   0.93605   0.02233 
C          C       0.99701   0.06395   0.02233 
C          C       0.43605   0.00299   0.77233 
C          C       0.56395   0.99701   0.77233 
C          C       0.49701   0.93605   0.72767 
C          C       0.50299   0.06395   0.72767 
C          C       0.67391   0.50800   0.43269 
C          C       0.32609   0.49200   0.43269 
C          C       0.50800   0.32609   0.56731 
C          C       0.49200   0.67391   0.56731 
C          C       0.82609   0.50800   0.31731 
C          C       0.17391   0.49200   0.31731 
C          C       0.99200   0.32609   0.18269 
C          C       0.00800   0.67391   0.18269 
C          C       0.17391   0.00800   0.93269 
C          C       0.82609   0.99200   0.93269 
C          C       0.00800   0.82609   0.06731 
C          C       0.99200   0.17391   0.06731 
C          C       0.32609   0.00800   0.81731 
C          C       0.67391   0.99200   0.81731 
C          C       0.49200   0.82609   0.68269 
C          C       0.50800   0.17391   0.68269 
O          O       0.72827   0.51202   0.41148 
O          O       0.27173   0.48798   0.41148 
O          O       0.51202   0.27173   0.58852 
O          O       0.48798   0.72827   0.58852 
O          O       0.77173   0.51202   0.33852 
O          O       0.22827   0.48798   0.33852 
O          O       0.98798   0.27173   0.16148 
O          O       0.01202   0.72827   0.16148 
O          O       0.22827   0.01202   0.91148 
O          O       0.77173   0.98798   0.91148 
O          O       0.01202   0.77173   0.08852 
O          O       0.98798   0.22827   0.08852 
O          O       0.27173   0.01202   0.83852 
O          O       0.72827   0.98798   0.83852 
O          O       0.48798   0.77173   0.66148 
O          O       0.51202   0.22827   0.66148 
Cl         Cl      0.30271   0.90106   0.40524 
Cl         Cl      0.69729   0.09894   0.40524 
Cl         Cl      0.90106   0.69729   0.59476 
Cl         Cl      0.09894   0.30271   0.59476 
Cl         Cl      0.19729   0.90106   0.34476 
Cl         Cl      0.80271   0.09894   0.34476 
Cl         Cl      0.59894   0.69729   0.15524 
Cl         Cl      0.40106   0.30271   0.15524 
Cl         Cl      0.80271   0.40106   0.90524 
Cl         Cl      0.19729   0.59894   0.90524 
Cl         Cl      0.40106   0.19729   0.09476 
Cl         Cl      0.59894   0.80271   0.09476 
Cl         Cl      0.69729   0.40106   0.84476 
Cl         Cl      0.30271   0.59894   0.84476 
Cl         Cl      0.09894   0.19729   0.65524 
Cl         Cl      0.90106   0.80271   0.65524 
H          H       0.37848   0.67895   0.55751 
H          H       0.62152   0.32105   0.55751 
H          H       0.67895   0.62152   0.44249 
H          H       0.32105   0.37848   0.44249 
H          H       0.12152   0.67895   0.19249 
H          H       0.87848   0.32105   0.19249 
H          H       0.82105   0.62152   0.30751 
H          H       0.17895   0.37848   0.30751 
H          H       0.87848   0.17895   0.05751 
H          H       0.12152   0.82105   0.05751 
H          H       0.17895   0.12152   0.94249 
H          H       0.82105   0.87848   0.94249 
H          H       0.62152   0.17895   0.69249 
H          H       0.37848   0.82105   0.69249 
H          H       0.32105   0.12152   0.80751 
H          H       0.67895   0.87848   0.80751 
H          H       0.67370   0.63421   0.56578 
H          H       0.32630   0.36579   0.56578 
H          H       0.63421   0.32630   0.43422 
H          H       0.36579   0.67370   0.43422 
H          H       0.82630   0.63421   0.18422 
H          H       0.17370   0.36579   0.18422 
H          H       0.86579   0.32630   0.31578 
H          H       0.13421   0.67370   0.31578 
H          H       0.17370   0.13421   0.06578 
H          H       0.82630   0.86579   0.06578 
H          H       0.13421   0.82630   0.93422 
H          H       0.86579   0.17370   0.93422 
H          H       0.32630   0.13421   0.68422 
H          H       0.67370   0.86579   0.68422 
H          H       0.36579   0.82630   0.81578 
H          H       0.63421   0.17370   0.81578 
H          H       0.55689   0.39043   0.46664 
H          H       0.44311   0.60957   0.46664 
H          H       0.39043   0.44311   0.53336 
H          H       0.60957   0.55689   0.53336 
H          H       0.94311   0.39043   0.28336 
H          H       0.05689   0.60957   0.28336 
H          H       0.10957   0.44311   0.21664 
H          H       0.89043   0.55689   0.21664 
H          H       0.05689   0.89043   0.96664 
H          H       0.94311   0.10957   0.96664 
H          H       0.89043   0.94311   0.03336 
H          H       0.10957   0.05689   0.03336 
H          H       0.44311   0.89043   0.78336 
H          H       0.55689   0.10957   0.78336 
H          H       0.60957   0.94311   0.71664 
H          H       0.39043   0.05689   0.71664 
H          H       0.75808   0.66796   0.57766 
H          H       0.24192   0.33204   0.57766 
H          H       0.66796   0.24192   0.42234 
H          H       0.33204   0.75808   0.42234 
H          H       0.74192   0.66796   0.17234 
H          H       0.25808   0.33204   0.17234 
H          H       0.83204   0.24192   0.32766 
H          H       0.16796   0.75808   0.32766 
H          H       0.25808   0.16796   0.07766 
H          H       0.74192   0.83204   0.07766 
H          H       0.16796   0.74192   0.92234 
H          H       0.83204   0.25808   0.92234 
H          H       0.24192   0.16796   0.67234 
H          H       0.75808   0.83204   0.67234 
H          H       0.33204   0.74192   0.82766 
H          H       0.66796   0.25808   0.82766 
H          H       0.61740   0.07903   0.73232 
H          H       0.38260   0.92097   0.73232 
H          H       0.07903   0.38260   0.26768 
H          H       0.92097   0.61740   0.26768 
H          H       0.88260   0.07903   0.01768 
H          H       0.11740   0.92097   0.01768 
H          H       0.42097   0.38260   0.48232 
H          H       0.57903   0.61740   0.48232 
H          H       0.11740   0.57903   0.23232 
H          H       0.88260   0.42097   0.23232 
H          H       0.57903   0.88260   0.76768 
H          H       0.42097   0.11740   0.76768 
H          H       0.38260   0.57903   0.51768 
H          H       0.61740   0.42097   0.51768 
H          H       0.92097   0.88260   0.98232 
H          H       0.07903   0.11740   0.98232 
H          H       0.76995   0.54710   0.42104 
H          H       0.23005   0.45290   0.42104 
H          H       0.54710   0.23005   0.57896 
H          H       0.45290   0.76995   0.57896 
H          H       0.73005   0.54710   0.32896 
H          H       0.26995   0.45290   0.32896 
H          H       0.95290   0.23005   0.17104 
H          H       0.04710   0.76995   0.17104 
H          H       0.26995   0.04710   0.92104 
H          H       0.73005   0.95290   0.92104 
H          H       0.04710   0.73005   0.07896 
H          H       0.95290   0.26995   0.07896 
H          H       0.23005   0.04710   0.82896 
H          H       0.76995   0.95290   0.82896 
H          H       0.45290   0.73005   0.67104 
H          H       0.54710   0.26995   0.67104 
C          C       0.50000   0.50000   0.50000 
C          C       0.00000   0.50000   0.25000 
C          C       0.00000   0.00000   0.00000 
C          C       0.50000   0.00000   0.75000 
