data_crystal
 
_cell_length_a    19.25100
_cell_length_b    19.25100
_cell_length_c    42.03400
_cell_angle_alpha 90.00000
_cell_angle_beta  90.00000
_cell_angle_gamma 90.00000
 
_symmetry_space_group_name_Hall 'P 1'
_symmetry_space_group_name_H-M  'P 1'
 
loop_
_symmetry_equiv_pos_as_xyz
 'x,y,z' 
 
loop_
_atom_site_label
_atom_site_type_symbol
_atom_site_fract_x
_atom_site_fract_y
_atom_site_fract_z
C          C       0.58509   0.44284   0.46130 
C          C       0.41491   0.55716   0.46130 
C          C       0.44284   0.41491   0.53870 
C          C       0.55716   0.58509   0.53870 
C          C       0.91491   0.44284   0.28870 
C          C       0.08509   0.55716   0.28870 
C          C       0.05716   0.41491   0.21130 
C          C       0.94284   0.58509   0.21130 
C          C       0.08509   0.94284   0.96130 
C          C       0.91491   0.05716   0.96130 
C          C       0.94284   0.91491   0.03870 
C          C       0.05716   0.08509   0.03870 
C          C       0.41491   0.94284   0.78870 
C          C       0.58509   0.05716   0.78870 
C          C       0.55716   0.91491   0.71130 
C          C       0.44284   0.08509   0.71130 
C          C       0.63950   0.44454   0.43916 
C          C       0.36050   0.55546   0.43916 
C          C       0.44454   0.36050   0.56084 
C          C       0.55546   0.63950   0.56084 
C          C       0.86050   0.44454   0.31084 
C          C       0.13950   0.55546   0.31084 
C          C       0.05546   0.36050   0.18916 
C          C       0.94454   0.63950   0.18916 
C          C       0.13950   0.94454   0.93916 
C          C       0.86050   0.05546   0.93916 
C          C       0.94454   0.86050   0.06084 
C          C       0.05546   0.13950   0.06084 
C          C       0.36050   0.94454   0.81084 
C          C       0.63950   0.05546   0.81084 
C          C       0.55546   0.86050   0.68916 
C          C       0.44454   0.13950   0.68916 
C          C       0.75545   0.70456   0.59905 
C          C       0.24455   0.29544   0.59905 
C          C       0.70456   0.24455   0.40095 
C          C       0.29544   0.75545   0.40095 
C          C       0.74455   0.70456   0.15095 
C          C       0.25545   0.29544   0.15095 
C          C       0.79544   0.24455   0.34905 
C          C       0.20456   0.75545   0.34905 
C          C       0.25545   0.20456   0.09905 
C          C       0.74455   0.79544   0.09905 
C          C       0.20456   0.74455   0.90095 
C          C       0.79544   0.25545   0.90095 
C          C       0.24455   0.20456   0.65095 
C          C       0.75545   0.79544   0.65095 
C          C       0.29544   0.74455   0.84905 
C          C       0.70456   0.25545   0.84905 
C          C       0.81863   0.72715   0.61204 
C          C       0.18137   0.27285   0.61204 
C          C       0.72715   0.18137   0.38796 
C          C       0.27285   0.81863   0.38796 
C          C       0.68137   0.72715   0.13796 
C          C       0.31863   0.27285   0.13796 
C          C       0.77285   0.18137   0.36204 
C          C       0.22715   0.81863   0.36204 
C          C       0.31863   0.22715   0.11204 
C          C       0.68137   0.77285   0.11204 
C          C       0.22715   0.68137   0.88796 
C          C       0.77285   0.31863   0.88796 
C          C       0.18137   0.22715   0.63796 
C          C       0.81863   0.77285   0.63796 
C          C       0.27285   0.68137   0.86204 
C          C       0.72715   0.31863   0.86204 
C          C       0.56686   0.09596   0.71993 
C          C       0.43314   0.90404   0.71993 
C          C       0.09596   0.43314   0.28007 
C          C       0.90404   0.56686   0.28007 
C          C       0.93314   0.09596   0.03007 
C          C       0.06686   0.90404   0.03007 
C          C       0.40404   0.43314   0.46993 
C          C       0.59596   0.56686   0.46993 
C          C       0.06686   0.59596   0.21993 
C          C       0.93314   0.40404   0.21993 
C          C       0.59596   0.93314   0.78007 
C          C       0.40404   0.06686   0.78007 
C          C       0.43314   0.59596   0.53007 
C          C       0.56686   0.40404   0.53007 
C          C       0.90404   0.93314   0.96993 
C          C       0.09596   0.06686   0.96993 
C          C       0.56941   0.15024   0.69778 
C          C       0.43059   0.84976   0.69778 
C          C       0.15024   0.43059   0.30222 
C          C       0.84976   0.56941   0.30222 
C          C       0.93059   0.15024   0.05222 
C          C       0.06941   0.84976   0.05222 
C          C       0.34976   0.43059   0.44778 
C          C       0.65024   0.56941   0.44778 
C          C       0.06941   0.65024   0.19778 
C          C       0.93059   0.34976   0.19778 
C          C       0.65024   0.93059   0.80222 
C          C       0.34976   0.06941   0.80222 
C          C       0.43059   0.65024   0.55222 
C          C       0.56941   0.34976   0.55222 
C          C       0.84976   0.93059   0.94778 
C          C       0.15024   0.06941   0.94778 
C          C       0.37777   0.15997   0.67456 
C          C       0.62223   0.84003   0.67456 
C          C       0.15997   0.62223   0.32544 
C          C       0.84003   0.37777   0.32544 
C          C       0.12223   0.15997   0.07544 
C          C       0.87777   0.84003   0.07544 
C          C       0.34003   0.62223   0.42456 
C          C       0.65997   0.37777   0.42456 
C          C       0.87777   0.65997   0.17456 
C          C       0.12223   0.34003   0.17456 
C          C       0.65997   0.12223   0.82544 
C          C       0.34003   0.87777   0.82544 
C          C       0.62223   0.65997   0.57544 
C          C       0.37777   0.34003   0.57544 
C          C       0.84003   0.12223   0.92456 
C          C       0.15997   0.87777   0.92456 
N          N       0.37360   0.20549   0.65181 
N          N       0.62640   0.79451   0.65181 
N          N       0.20549   0.62640   0.34819 
N          N       0.79451   0.37360   0.34819 
N          N       0.12640   0.20549   0.09819 
N          N       0.87360   0.79451   0.09819 
N          N       0.29451   0.62640   0.40181 
N          N       0.70549   0.37360   0.40181 
N          N       0.87360   0.70549   0.15181 
N          N       0.12640   0.29451   0.15181 
N          N       0.70549   0.12640   0.84819 
N          N       0.29451   0.87360   0.84819 
N          N       0.62640   0.70549   0.59819 
N          N       0.37360   0.29451   0.59819 
N          N       0.79451   0.12640   0.90181 
N          N       0.20549   0.87360   0.90181 
C          C       0.30849   0.22714   0.63810 
C          C       0.69151   0.77286   0.63810 
C          C       0.22714   0.69151   0.36190 
C          C       0.77286   0.30849   0.36190 
C          C       0.19151   0.22714   0.11190 
C          C       0.80849   0.77286   0.11190 
C          C       0.27286   0.69151   0.38810 
C          C       0.72714   0.30849   0.38810 
C          C       0.80849   0.72714   0.13810 
C          C       0.19151   0.27286   0.13810 
C          C       0.72714   0.19151   0.86190 
C          C       0.27286   0.80849   0.86190 
C          C       0.69151   0.72714   0.61190 
C          C       0.30849   0.27286   0.61190 
C          C       0.77286   0.19151   0.88810 
C          C       0.22714   0.80849   0.88810 
C          C       0.56337   0.50325   0.47756 
C          C       0.43663   0.49675   0.47756 
C          C       0.50325   0.43663   0.52244 
C          C       0.49675   0.56337   0.52244 
C          C       0.93663   0.50325   0.27244 
C          C       0.06337   0.49675   0.27244 
C          C       0.99675   0.43663   0.22756 
C          C       0.00325   0.56337   0.22756 
C          C       0.06337   0.00325   0.97756 
C          C       0.93663   0.99675   0.97756 
C          C       0.00325   0.93663   0.02244 
C          C       0.99675   0.06337   0.02244 
C          C       0.43663   0.00325   0.77244 
C          C       0.56337   0.99675   0.77244 
C          C       0.49675   0.93663   0.72756 
C          C       0.50325   0.06337   0.72756 
C          C       0.67249   0.50868   0.43242 
C          C       0.32751   0.49132   0.43242 
C          C       0.50868   0.32751   0.56758 
C          C       0.49132   0.67249   0.56758 
C          C       0.82751   0.50868   0.31758 
C          C       0.17249   0.49132   0.31758 
C          C       0.99132   0.32751   0.18242 
C          C       0.00868   0.67249   0.18242 
C          C       0.17249   0.00868   0.93242 
C          C       0.82751   0.99132   0.93242 
C          C       0.00868   0.82751   0.06758 
C          C       0.99132   0.17249   0.06758 
C          C       0.32751   0.00868   0.81758 
C          C       0.67249   0.99132   0.81758 
C          C       0.49132   0.82751   0.68242 
C          C       0.50868   0.17249   0.68242 
O          O       0.72641   0.51290   0.41115 
O          O       0.27359   0.48710   0.41115 
O          O       0.51290   0.27359   0.58885 
O          O       0.48710   0.72641   0.58885 
O          O       0.77359   0.51290   0.33885 
O          O       0.22641   0.48710   0.33885 
O          O       0.98710   0.27359   0.16115 
O          O       0.01290   0.72641   0.16115 
O          O       0.22641   0.01290   0.91115 
O          O       0.77359   0.98710   0.91115 
O          O       0.01290   0.77359   0.08885 
O          O       0.98710   0.22641   0.08885 
O          O       0.27359   0.01290   0.83885 
O          O       0.72641   0.98710   0.83885 
O          O       0.48710   0.77359   0.66115 
O          O       0.51290   0.22641   0.66115 
F          F       0.29519   0.87972   0.40067 
F          F       0.70481   0.12028   0.40067 
F          F       0.87972   0.70481   0.59933 
F          F       0.12028   0.29519   0.59933 
F          F       0.20481   0.87972   0.34933 
F          F       0.79519   0.12028   0.34933 
F          F       0.62028   0.70481   0.15067 
F          F       0.37972   0.29519   0.15067 
F          F       0.79519   0.37972   0.90067 
F          F       0.20481   0.62028   0.90067 
F          F       0.37972   0.20481   0.09933 
F          F       0.62028   0.79519   0.09933 
F          F       0.70481   0.37972   0.84933 
F          F       0.29519   0.62028   0.84933 
F          F       0.12028   0.20481   0.65067 
F          F       0.87972   0.79519   0.65067 
H          H       0.55710   0.39160   0.46657 
H          H       0.44290   0.60840   0.46657 
H          H       0.39160   0.44290   0.53343 
H          H       0.60840   0.55710   0.53343 
H          H       0.94290   0.39160   0.28343 
H          H       0.05710   0.60840   0.28343 
H          H       0.10840   0.44290   0.21657 
H          H       0.89160   0.55710   0.21657 
H          H       0.05710   0.89160   0.96657 
H          H       0.94290   0.10840   0.96657 
H          H       0.89160   0.94290   0.03343 
H          H       0.10840   0.05710   0.03343 
H          H       0.44290   0.89160   0.78343 
H          H       0.55710   0.10840   0.78343 
H          H       0.60840   0.94290   0.71657 
H          H       0.39160   0.05710   0.71657 
H          H       0.75536   0.66745   0.57782 
H          H       0.24464   0.33255   0.57782 
H          H       0.66745   0.24464   0.42218 
H          H       0.33255   0.75536   0.42218 
H          H       0.74464   0.66745   0.17218 
H          H       0.25536   0.33255   0.17218 
H          H       0.83255   0.24464   0.32782 
H          H       0.16745   0.75536   0.32782 
H          H       0.25536   0.16745   0.07782 
H          H       0.74464   0.83255   0.07782 
H          H       0.16745   0.74464   0.92218 
H          H       0.83255   0.25536   0.92218 
H          H       0.24464   0.16745   0.67218 
H          H       0.75536   0.83255   0.67218 
H          H       0.33255   0.74464   0.82782 
H          H       0.66745   0.25536   0.82782 
H          H       0.61677   0.07752   0.73209 
H          H       0.38323   0.92248   0.73209 
H          H       0.07752   0.38323   0.26791 
H          H       0.92248   0.61677   0.26791 
H          H       0.88323   0.07752   0.01791 
H          H       0.11677   0.92248   0.01791 
H          H       0.42248   0.38323   0.48209 
H          H       0.57752   0.61677   0.48209 
H          H       0.11677   0.57752   0.23209 
H          H       0.88323   0.42248   0.23209 
H          H       0.57752   0.88323   0.76791 
H          H       0.42248   0.11677   0.76791 
H          H       0.38323   0.57752   0.51791 
H          H       0.61677   0.42248   0.51791 
H          H       0.92248   0.88323   0.98209 
H          H       0.07752   0.11677   0.98209 
H          H       0.62128   0.17669   0.69213 
H          H       0.37872   0.82331   0.69213 
H          H       0.17669   0.37872   0.30787 
H          H       0.82331   0.62128   0.30787 
H          H       0.87872   0.17669   0.05787 
H          H       0.12128   0.82331   0.05787 
H          H       0.32331   0.37872   0.44213 
H          H       0.67669   0.62128   0.44213 
H          H       0.12128   0.67669   0.19213 
H          H       0.87872   0.32331   0.19213 
H          H       0.67669   0.87872   0.80787 
H          H       0.32331   0.12128   0.80787 
H          H       0.37872   0.67669   0.55787 
H          H       0.62128   0.32331   0.55787 
H          H       0.82331   0.87872   0.94213 
H          H       0.17669   0.12128   0.94213 
H          H       0.32841   0.13401   0.68405 
H          H       0.67159   0.86599   0.68405 
H          H       0.13401   0.67159   0.31595 
H          H       0.86599   0.32841   0.31595 
H          H       0.17159   0.13401   0.06595 
H          H       0.82841   0.86599   0.06595 
H          H       0.36599   0.67159   0.43405 
H          H       0.63401   0.32841   0.43405 
H          H       0.82841   0.63401   0.18405 
H          H       0.17159   0.36599   0.18405 
H          H       0.63401   0.17159   0.81595 
H          H       0.36599   0.82841   0.81595 
H          H       0.67159   0.63401   0.56595 
H          H       0.32841   0.36599   0.56595 
H          H       0.86599   0.17159   0.93405 
H          H       0.13401   0.82841   0.93405 
H          H       0.76755   0.54781   0.42080 
H          H       0.23245   0.45219   0.42080 
H          H       0.54781   0.23245   0.57920 
H          H       0.45219   0.76755   0.57920 
H          H       0.73245   0.54781   0.32920 
H          H       0.26755   0.45219   0.32920 
H          H       0.95219   0.23245   0.17080 
H          H       0.04781   0.76755   0.17080 
H          H       0.26755   0.04781   0.92080 
H          H       0.73245   0.95219   0.92080 
H          H       0.04781   0.73245   0.07920 
H          H       0.95219   0.26755   0.07920 
H          H       0.23245   0.04781   0.82920 
H          H       0.76755   0.95219   0.82920 
H          H       0.45219   0.73245   0.67080 
H          H       0.54781   0.26755   0.67080 
C          C       0.50000   0.50000   0.50000 
C          C       0.00000   0.50000   0.25000 
C          C       0.00000   0.00000   0.00000 
C          C       0.50000   0.00000   0.75000 
