data_crystal

_cell_length_a    22.73540
_cell_length_b    22.73540
_cell_length_c    6.80080
_cell_angle_alpha 90.00000
_cell_angle_beta  90.00000
_cell_angle_gamma 90.00000

_space_group_name_Hall 'P 1'
_space_group_name_H-M_alt  'P 1'

loop_
_symmetry_equiv_pos_as_xyz
'x,y,z' 

loop_
_atom_site_label
_atom_site_type_symbol
_atom_site_fract_x
_atom_site_fract_y
_atom_site_fract_z
C          C       0.53923   0.53644   0.35940 
C          C       0.46077   0.46356   0.35940 
C          C       0.53644   0.46077   0.64060 
C          C       0.46356   0.53923   0.64060 
C          C       0.96077   0.53644   0.39060 
C          C       0.03923   0.46356   0.39060 
C          C       0.96356   0.46077   0.10940 
C          C       0.03644   0.53923   0.10940 
C          C       0.03923   0.03644   0.85940 
C          C       0.96077   0.96356   0.85940 
C          C       0.03644   0.96077   0.14060 
C          C       0.96356   0.03923   0.14060 
C          C       0.46077   0.03644   0.89060 
C          C       0.53923   0.96356   0.89060 
C          C       0.46356   0.96077   0.60940 
C          C       0.53644   0.03923   0.60940 
C          C       0.58427   0.50885   0.25136 
C          C       0.41573   0.49115   0.25136 
C          C       0.50885   0.41573   0.74864 
C          C       0.49115   0.58427   0.74864 
C          C       0.91573   0.50885   0.49864 
C          C       0.08427   0.49115   0.49864 
C          C       0.99115   0.41573   0.00136 
C          C       0.00885   0.58427   0.00136 
C          C       0.08427   0.00885   0.75136 
C          C       0.91573   0.99115   0.75136 
C          C       0.00885   0.91573   0.24864 
C          C       0.99115   0.08427   0.24864 
C          C       0.41573   0.00885   0.99864 
C          C       0.58427   0.99115   0.99864 
C          C       0.49115   0.91573   0.50136 
C          C       0.50885   0.08427   0.50136 
C          C       0.62710   0.54225   0.15592 
C          C       0.37290   0.45775   0.15592 
C          C       0.54225   0.37290   0.84408 
C          C       0.45775   0.62710   0.84408 
C          C       0.87290   0.54225   0.59408 
C          C       0.12710   0.45775   0.59408 
C          C       0.95775   0.37290   0.90592 
C          C       0.04225   0.62710   0.90592 
C          C       0.12710   0.04225   0.65592 
C          C       0.87290   0.95775   0.65592 
C          C       0.04225   0.87290   0.34408 
C          C       0.95775   0.12710   0.34408 
C          C       0.37290   0.04225   0.09408 
C          C       0.62710   0.95775   0.09408 
C          C       0.45775   0.87290   0.40592 
C          C       0.54225   0.12710   0.40592 
C          C       0.62512   0.60402   0.15978 
C          C       0.37488   0.39598   0.15978 
C          C       0.60402   0.37488   0.84022 
C          C       0.39598   0.62512   0.84022 
C          C       0.87488   0.60402   0.59022 
C          C       0.12512   0.39598   0.59022 
C          C       0.89598   0.37488   0.90978 
C          C       0.10402   0.62512   0.90978 
C          C       0.12512   0.10402   0.65978 
C          C       0.87488   0.89598   0.65978 
C          C       0.10402   0.87488   0.34022 
C          C       0.89598   0.12512   0.34022 
C          C       0.37488   0.10402   0.09022 
C          C       0.62512   0.89598   0.09022 
C          C       0.39598   0.87488   0.40978 
C          C       0.60402   0.12512   0.40978 
C          C       0.57379   0.63140   0.23755 
C          C       0.42621   0.36860   0.23755 
C          C       0.63140   0.42621   0.76245 
C          C       0.36860   0.57379   0.76245 
C          C       0.92621   0.63140   0.51245 
C          C       0.07379   0.36860   0.51245 
C          C       0.86860   0.42621   0.98755 
C          C       0.13140   0.57379   0.98755 
C          C       0.07379   0.13140   0.73755 
C          C       0.92621   0.86860   0.73755 
C          C       0.13140   0.92621   0.26245 
C          C       0.86860   0.07379   0.26245 
C          C       0.42621   0.13140   0.01245 
C          C       0.57379   0.86860   0.01245 
C          C       0.36860   0.92621   0.48755 
C          C       0.63140   0.07379   0.48755 
C          C       0.53072   0.59701   0.32810 
C          C       0.46928   0.40299   0.32810 
C          C       0.59701   0.46928   0.67190 
C          C       0.40299   0.53072   0.67190 
C          C       0.96928   0.59701   0.42190 
C          C       0.03072   0.40299   0.42190 
C          C       0.90299   0.46928   0.07810 
C          C       0.09701   0.53072   0.07810 
C          C       0.03072   0.09701   0.82810 
C          C       0.96928   0.90299   0.82810 
C          C       0.09701   0.96928   0.17190 
C          C       0.90299   0.03072   0.17190 
C          C       0.46928   0.09701   0.92190 
C          C       0.53072   0.90299   0.92190 
C          C       0.40299   0.96928   0.57810 
C          C       0.59701   0.03072   0.57810 
C          C       0.67875   0.63534   0.09156 
C          C       0.32125   0.36466   0.09156 
C          C       0.63534   0.32125   0.90844 
C          C       0.36466   0.67875   0.90844 
C          C       0.82125   0.63534   0.65844 
C          C       0.17875   0.36466   0.65844 
C          C       0.86466   0.32125   0.84156 
C          C       0.13534   0.67875   0.84156 
C          C       0.17875   0.13534   0.59156 
C          C       0.82125   0.86466   0.59156 
C          C       0.13534   0.82125   0.40844 
C          C       0.86466   0.17875   0.40844 
C          C       0.32125   0.13534   0.15844 
C          C       0.67875   0.86466   0.15844 
C          C       0.36466   0.82125   0.34156 
C          C       0.63534   0.17875   0.34156 
N          N       0.69047   0.68870   0.14658 
N          N       0.30953   0.31130   0.14658 
N          N       0.68870   0.30953   0.85342 
N          N       0.31130   0.69047   0.85342 
N          N       0.80953   0.68870   0.60342 
N          N       0.19047   0.31130   0.60342 
N          N       0.81130   0.30953   0.89658 
N          N       0.18870   0.69047   0.89658 
N          N       0.19047   0.18870   0.64658 
N          N       0.80953   0.81130   0.64658 
N          N       0.18870   0.80953   0.35342 
N          N       0.81130   0.19047   0.35342 
N          N       0.30953   0.18870   0.10342 
N          N       0.69047   0.81130   0.10342 
N          N       0.31130   0.80953   0.39658 
N          N       0.68870   0.19047   0.39658 
C          C       0.74555   0.71897   0.12351 
C          C       0.25445   0.28103   0.12351 
C          C       0.71897   0.25445   0.87649 
C          C       0.28103   0.74555   0.87649 
C          C       0.75445   0.71897   0.62649 
C          C       0.24555   0.28103   0.62649 
C          C       0.78103   0.25445   0.87351 
C          C       0.21897   0.74555   0.87351 
C          C       0.24555   0.21897   0.62351 
C          C       0.75445   0.78103   0.62351 
C          C       0.21897   0.75445   0.37649 
C          C       0.78103   0.24555   0.37649 
C          C       0.25445   0.21897   0.12649 
C          C       0.74555   0.78103   0.12649 
C          C       0.28103   0.75445   0.37351 
C          C       0.71897   0.24555   0.37351 
C          C       0.79913   0.68783   0.11892 
C          C       0.20087   0.31217   0.11892 
C          C       0.68783   0.20087   0.88108 
C          C       0.31217   0.79913   0.88108 
C          C       0.70087   0.68783   0.63108 
C          C       0.29913   0.31217   0.63108 
C          C       0.81217   0.20087   0.86892 
C          C       0.18783   0.79913   0.86892 
C          C       0.29913   0.18783   0.61892 
C          C       0.70087   0.81217   0.61892 
C          C       0.18783   0.70087   0.38108 
C          C       0.81217   0.29913   0.38108 
C          C       0.20087   0.18783   0.13108 
C          C       0.79913   0.81217   0.13108 
C          C       0.31217   0.70087   0.36892 
C          C       0.68783   0.29913   0.36892 
C          C       0.85245   0.71782   0.11716 
C          C       0.14755   0.28218   0.11716 
C          C       0.71782   0.14755   0.88284 
C          C       0.28218   0.85245   0.88284 
C          C       0.64755   0.71782   0.63284 
C          C       0.35245   0.28218   0.63284 
C          C       0.78218   0.14755   0.86716 
C          C       0.21782   0.85245   0.86716 
C          C       0.35245   0.21782   0.61716 
C          C       0.64755   0.78218   0.61716 
C          C       0.21782   0.64755   0.38284 
C          C       0.78218   0.35245   0.38284 
C          C       0.14755   0.21782   0.13284 
C          C       0.85245   0.78218   0.13284 
C          C       0.28218   0.64755   0.36716 
C          C       0.71782   0.35245   0.36716 
H          H       0.58893   0.46147   0.25430 
H          H       0.41107   0.53853   0.25430 
H          H       0.46147   0.41107   0.74570 
H          H       0.53853   0.58893   0.74570 
H          H       0.91107   0.46147   0.49570 
H          H       0.08893   0.53853   0.49570 
H          H       0.03853   0.41107   0.00430 
H          H       0.96147   0.58893   0.00430 
H          H       0.08893   0.96147   0.75430 
H          H       0.91107   0.03853   0.75430 
H          H       0.96147   0.91107   0.24570 
H          H       0.03853   0.08893   0.24570 
H          H       0.41107   0.96147   0.99570 
H          H       0.58893   0.03853   0.99570 
H          H       0.53853   0.91107   0.50430 
H          H       0.46147   0.08893   0.50430 
H          H       0.66398   0.51956   0.08930 
H          H       0.33602   0.48044   0.08930 
H          H       0.51956   0.33602   0.91070 
H          H       0.48044   0.66398   0.91070 
H          H       0.83602   0.51956   0.66070 
H          H       0.16398   0.48044   0.66070 
H          H       0.98044   0.33602   0.83930 
H          H       0.01956   0.66398   0.83930 
H          H       0.16398   0.01956   0.58930 
H          H       0.83602   0.98044   0.58930 
H          H       0.01956   0.83602   0.41070 
H          H       0.98044   0.16398   0.41070 
H          H       0.33602   0.01956   0.16070 
H          H       0.66398   0.98044   0.16070 
H          H       0.48044   0.83602   0.33930 
H          H       0.51956   0.16398   0.33930 
O          O       0.56273   0.69174   0.23076 
O          O       0.43727   0.30826   0.23076 
O          O       0.69174   0.43727   0.76924 
O          O       0.30826   0.56273   0.76924 
O          O       0.93727   0.69174   0.51924 
O          O       0.06273   0.30826   0.51924 
O          O       0.80826   0.43727   0.98076 
O          O       0.19174   0.56273   0.98076 
O          O       0.06273   0.19174   0.73076 
O          O       0.93727   0.80826   0.73076 
O          O       0.19174   0.93727   0.26924 
O          O       0.80826   0.06273   0.26924 
O          O       0.43727   0.19174   0.01924 
O          O       0.56273   0.80826   0.01924 
O          O       0.30826   0.93727   0.48076 
O          O       0.69174   0.06273   0.48076 
H          H       0.49191   0.61906   0.38309 
H          H       0.50809   0.38094   0.38309 
H          H       0.61906   0.50809   0.61691 
H          H       0.38094   0.49191   0.61691 
H          H       0.00809   0.61906   0.36691 
H          H       0.99191   0.38094   0.36691 
H          H       0.88094   0.50809   0.13309 
H          H       0.11906   0.49191   0.13309 
H          H       0.99191   0.11906   0.88309 
H          H       0.00809   0.88094   0.88309 
H          H       0.11906   0.00809   0.11691 
H          H       0.88094   0.99191   0.11691 
H          H       0.50809   0.11906   0.86691 
H          H       0.49191   0.88094   0.86691 
H          H       0.38094   0.00809   0.63309 
H          H       0.61906   0.99191   0.63309 
H          H       0.71156   0.61022   0.01247 
H          H       0.28844   0.38978   0.01247 
H          H       0.61022   0.28844   0.98753 
H          H       0.38978   0.71156   0.98753 
H          H       0.78844   0.61022   0.73753 
H          H       0.21156   0.38978   0.73753 
H          H       0.88978   0.28844   0.76247 
H          H       0.11022   0.71156   0.76247 
H          H       0.21156   0.11022   0.51247 
H          H       0.78844   0.88978   0.51247 
H          H       0.11022   0.78844   0.48753 
H          H       0.88978   0.21156   0.48753 
H          H       0.28844   0.11022   0.23753 
H          H       0.71156   0.88978   0.23753 
H          H       0.38978   0.78844   0.26247 
H          H       0.61022   0.21156   0.26247 
H          H       0.79999   0.64028   0.12045 
H          H       0.20001   0.35972   0.12045 
H          H       0.64028   0.20001   0.87955 
H          H       0.35972   0.79999   0.87955 
H          H       0.70001   0.64028   0.62955 
H          H       0.29999   0.35972   0.62955 
H          H       0.85972   0.20001   0.87045 
H          H       0.14028   0.79999   0.87045 
H          H       0.29999   0.14028   0.62045 
H          H       0.70001   0.85972   0.62045 
H          H       0.14028   0.70001   0.37955 
H          H       0.85972   0.29999   0.37955 
H          H       0.20001   0.14028   0.12955 
H          H       0.79999   0.85972   0.12955 
H          H       0.35972   0.70001   0.37045 
H          H       0.64028   0.29999   0.37045 
F          F       0.90384   0.68797   0.10300 
F          F       0.09616   0.31203   0.10300 
F          F       0.68797   0.09616   0.89700 
F          F       0.31203   0.90384   0.89700 
F          F       0.59616   0.68797   0.64700 
F          F       0.40384   0.31203   0.64700 
F          F       0.81203   0.09616   0.85300 
F          F       0.18797   0.90384   0.85300 
F          F       0.40384   0.18797   0.60300 
F          F       0.59616   0.81203   0.60300 
F          F       0.18797   0.59616   0.39700 
F          F       0.81203   0.40384   0.39700 
F          F       0.09616   0.18797   0.14700 
F          F       0.90384   0.81203   0.14700 
F          F       0.31203   0.59616   0.35300 
F          F       0.68797   0.40384   0.35300 
H          H       0.59827   0.71747   0.24601 
H          H       0.40173   0.28253   0.24601 
H          H       0.71747   0.40173   0.75399 
H          H       0.28253   0.59827   0.75399 
H          H       0.90173   0.71747   0.50399 
H          H       0.09827   0.28253   0.50399 
H          H       0.78253   0.40173   0.99601 
H          H       0.21747   0.59827   0.99601 
H          H       0.09827   0.21747   0.74601 
H          H       0.90173   0.78253   0.74601 
H          H       0.21747   0.90173   0.25399 
H          H       0.78253   0.09827   0.25399 
H          H       0.40173   0.21747   0.00399 
H          H       0.59827   0.78253   0.00399 
H          H       0.28253   0.90173   0.49601 
H          H       0.71747   0.09827   0.49601 
C          C       0.50000   0.50000   0.50000 
C          C       0.00000   0.50000   0.25000 
C          C       0.00000   0.00000   0.00000 
C          C       0.50000   0.00000   0.75000 
