data_crystal

_cell_length_a    23.31500
_cell_length_b    23.31500
_cell_length_c    6.81720
_cell_angle_alpha 90.00000
_cell_angle_beta  90.00000
_cell_angle_gamma 90.00000

_space_group_name_Hall 'P 1'
_space_group_name_H-M_alt  'P 1'

loop_
_symmetry_equiv_pos_as_xyz
'x,y,z' 

loop_
_atom_site_label
_atom_site_type_symbol
_atom_site_fract_x
_atom_site_fract_y
_atom_site_fract_z
C          C       0.53651   0.53747   0.35970 
C          C       0.46349   0.46253   0.35970 
C          C       0.53747   0.46349   0.64030 
C          C       0.46253   0.53651   0.64030 
C          C       0.96349   0.53747   0.39030 
C          C       0.03651   0.46253   0.39030 
C          C       0.96253   0.46349   0.10970 
C          C       0.03747   0.53651   0.10970 
C          C       0.03651   0.03747   0.85970 
C          C       0.96349   0.96253   0.85970 
C          C       0.03747   0.96349   0.14030 
C          C       0.96253   0.03651   0.14030 
C          C       0.46349   0.03747   0.89030 
C          C       0.53651   0.96253   0.89030 
C          C       0.46253   0.96349   0.60970 
C          C       0.53747   0.03651   0.60970 
C          C       0.57919   0.51127   0.24422 
C          C       0.42081   0.48873   0.24422 
C          C       0.51127   0.42081   0.75578 
C          C       0.48873   0.57919   0.75578 
C          C       0.92081   0.51127   0.50578 
C          C       0.07919   0.48873   0.50578 
C          C       0.98873   0.42081   0.99422 
C          C       0.01127   0.57919   0.99422 
C          C       0.07919   0.01127   0.74422 
C          C       0.92081   0.98873   0.74422 
C          C       0.01127   0.92081   0.25578 
C          C       0.98873   0.07919   0.25578 
C          C       0.42081   0.01127   0.00578 
C          C       0.57919   0.98873   0.00578 
C          C       0.48873   0.92081   0.49422 
C          C       0.51127   0.07919   0.49422 
C          C       0.61917   0.54427   0.14242 
C          C       0.38083   0.45573   0.14242 
C          C       0.54427   0.38083   0.85758 
C          C       0.45573   0.61917   0.85758 
C          C       0.88083   0.54427   0.60758 
C          C       0.11917   0.45573   0.60758 
C          C       0.95573   0.38083   0.89242 
C          C       0.04427   0.61917   0.89242 
C          C       0.11917   0.04427   0.64242 
C          C       0.88083   0.95573   0.64242 
C          C       0.04427   0.88083   0.35758 
C          C       0.95573   0.11917   0.35758 
C          C       0.38083   0.04427   0.10758 
C          C       0.61917   0.95573   0.10758 
C          C       0.45573   0.88083   0.39242 
C          C       0.54427   0.11917   0.39242 
C          C       0.61572   0.60422   0.14489 
C          C       0.38428   0.39578   0.14489 
C          C       0.60422   0.38428   0.85511 
C          C       0.39578   0.61572   0.85511 
C          C       0.88428   0.60422   0.60511 
C          C       0.11572   0.39578   0.60511 
C          C       0.89578   0.38428   0.89489 
C          C       0.10422   0.61572   0.89489 
C          C       0.11572   0.10422   0.64489 
C          C       0.88428   0.89578   0.64489 
C          C       0.10422   0.88428   0.35511 
C          C       0.89578   0.11572   0.35511 
C          C       0.38428   0.10422   0.10511 
C          C       0.61572   0.89578   0.10511 
C          C       0.39578   0.88428   0.39489 
C          C       0.60422   0.11572   0.39489 
C          C       0.56706   0.63048   0.22783 
C          C       0.43294   0.36952   0.22783 
C          C       0.63048   0.43294   0.77217 
C          C       0.36952   0.56706   0.77217 
C          C       0.93294   0.63048   0.52217 
C          C       0.06706   0.36952   0.52217 
C          C       0.86952   0.43294   0.97783 
C          C       0.13048   0.56706   0.97783 
C          C       0.06706   0.13048   0.72783 
C          C       0.93294   0.86952   0.72783 
C          C       0.13048   0.93294   0.27217 
C          C       0.86952   0.06706   0.27217 
C          C       0.43294   0.13048   0.02217 
C          C       0.56706   0.86952   0.02217 
C          C       0.36952   0.93294   0.47783 
C          C       0.63048   0.06706   0.47783 
C          C       0.52735   0.59687   0.33248 
C          C       0.47265   0.40313   0.33248 
C          C       0.59687   0.47265   0.66752 
C          C       0.40313   0.52735   0.66752 
C          C       0.97265   0.59687   0.41752 
C          C       0.02735   0.40313   0.41752 
C          C       0.90313   0.47265   0.08248 
C          C       0.09687   0.52735   0.08248 
C          C       0.02735   0.09687   0.83248 
C          C       0.97265   0.90313   0.83248 
C          C       0.09687   0.97265   0.16752 
C          C       0.90313   0.02735   0.16752 
C          C       0.47265   0.09687   0.91752 
C          C       0.52735   0.90313   0.91752 
C          C       0.40313   0.97265   0.58248 
C          C       0.59687   0.02735   0.58248 
C          C       0.66629   0.63722   0.07936 
C          C       0.33371   0.36278   0.07936 
C          C       0.63722   0.33371   0.92064 
C          C       0.36278   0.66629   0.92064 
C          C       0.83371   0.63722   0.67064 
C          C       0.16629   0.36278   0.67064 
C          C       0.86278   0.33371   0.82936 
C          C       0.13722   0.66629   0.82936 
C          C       0.16629   0.13722   0.57936 
C          C       0.83371   0.86278   0.57936 
C          C       0.13722   0.83371   0.42064 
C          C       0.86278   0.16629   0.42064 
C          C       0.33371   0.13722   0.17064 
C          C       0.66629   0.86278   0.17064 
C          C       0.36278   0.83371   0.32936 
C          C       0.63722   0.16629   0.32936 
N          N       0.67519   0.68934   0.14038 
N          N       0.32481   0.31066   0.14038 
N          N       0.68934   0.32481   0.85962 
N          N       0.31066   0.67519   0.85962 
N          N       0.82481   0.68934   0.60962 
N          N       0.17519   0.31066   0.60962 
N          N       0.81066   0.32481   0.89038 
N          N       0.18934   0.67519   0.89038 
N          N       0.17519   0.18934   0.64038 
N          N       0.82481   0.81066   0.64038 
N          N       0.18934   0.82481   0.35962 
N          N       0.81066   0.17519   0.35962 
N          N       0.32481   0.18934   0.10962 
N          N       0.67519   0.81066   0.10962 
N          N       0.31066   0.82481   0.39038 
N          N       0.68934   0.17519   0.39038 
C          C       0.72869   0.71971   0.12274 
C          C       0.27131   0.28029   0.12274 
C          C       0.71971   0.27131   0.87726 
C          C       0.28029   0.72869   0.87726 
C          C       0.77131   0.71971   0.62726 
C          C       0.22869   0.28029   0.62726 
C          C       0.78029   0.27131   0.87274 
C          C       0.21971   0.72869   0.87274 
C          C       0.22869   0.21971   0.62274 
C          C       0.77131   0.78029   0.62274 
C          C       0.21971   0.77131   0.37726 
C          C       0.78029   0.22869   0.37726 
C          C       0.27131   0.21971   0.12726 
C          C       0.72869   0.78029   0.12726 
C          C       0.28029   0.77131   0.37274 
C          C       0.71971   0.22869   0.37274 
C          C       0.78114   0.68953   0.11936 
C          C       0.21886   0.31047   0.11936 
C          C       0.68953   0.21886   0.88064 
C          C       0.31047   0.78114   0.88064 
C          C       0.71886   0.68953   0.63064 
C          C       0.28114   0.31047   0.63064 
C          C       0.81047   0.21886   0.86936 
C          C       0.18953   0.78114   0.86936 
C          C       0.28114   0.18953   0.61936 
C          C       0.71886   0.81047   0.61936 
C          C       0.18953   0.71886   0.38064 
C          C       0.81047   0.28114   0.38064 
C          C       0.21886   0.18953   0.13064 
C          C       0.78114   0.81047   0.13064 
C          C       0.31047   0.71886   0.36936 
C          C       0.68953   0.28114   0.36936 
C          C       0.83316   0.71864   0.11748 
C          C       0.16684   0.28136   0.11748 
C          C       0.71864   0.16684   0.88252 
C          C       0.28136   0.83316   0.88252 
C          C       0.66684   0.71864   0.63252 
C          C       0.33316   0.28136   0.63252 
C          C       0.78136   0.16684   0.86748 
C          C       0.21864   0.83316   0.86748 
C          C       0.33316   0.21864   0.61748 
C          C       0.66684   0.78136   0.61748 
C          C       0.21864   0.66684   0.38252 
C          C       0.78136   0.33316   0.38252 
C          C       0.16684   0.21864   0.13252 
C          C       0.83316   0.78136   0.13252 
C          C       0.28136   0.66684   0.36748 
C          C       0.71864   0.33316   0.36748 
H          H       0.58400   0.46516   0.24505 
H          H       0.41600   0.53484   0.24505 
H          H       0.46516   0.41600   0.75495 
H          H       0.53484   0.58400   0.75495 
H          H       0.91600   0.46516   0.50495 
H          H       0.08400   0.53484   0.50495 
H          H       0.03484   0.41600   0.99505 
H          H       0.96516   0.58400   0.99505 
H          H       0.08400   0.96516   0.74505 
H          H       0.91600   0.03484   0.74505 
H          H       0.96516   0.91600   0.25495 
H          H       0.03484   0.08400   0.25495 
H          H       0.41600   0.96516   0.00495 
H          H       0.58400   0.03484   0.00495 
H          H       0.53484   0.91600   0.49505 
H          H       0.46516   0.08400   0.49505 
H          H       0.65498   0.52297   0.07229 
H          H       0.34502   0.47703   0.07229 
H          H       0.52297   0.34502   0.92771 
H          H       0.47703   0.65498   0.92771 
H          H       0.84502   0.52297   0.67771 
H          H       0.15498   0.47703   0.67771 
H          H       0.97703   0.34502   0.82229 
H          H       0.02297   0.65498   0.82229 
H          H       0.15498   0.02297   0.57229 
H          H       0.84502   0.97703   0.57229 
H          H       0.02297   0.84502   0.42771 
H          H       0.97703   0.15498   0.42771 
H          H       0.34502   0.02297   0.17771 
H          H       0.65498   0.97703   0.17771 
H          H       0.47703   0.84502   0.32229 
H          H       0.52297   0.15498   0.32229 
O          O       0.55927   0.68975   0.21041 
O          O       0.44073   0.31025   0.21041 
O          O       0.68975   0.44073   0.78959 
O          O       0.31025   0.55927   0.78959 
O          O       0.94073   0.68975   0.53959 
O          O       0.05927   0.31025   0.53959 
O          O       0.81025   0.44073   0.96041 
O          O       0.18975   0.55927   0.96041 
O          O       0.05927   0.18975   0.71041 
O          O       0.94073   0.81025   0.71041 
O          O       0.18975   0.94073   0.28959 
O          O       0.81025   0.05927   0.28959 
O          O       0.44073   0.18975   0.03959 
O          O       0.55927   0.81025   0.03959 
O          O       0.31025   0.94073   0.46041 
O          O       0.68975   0.05927   0.46041 
H          H       0.49041   0.61787   0.39578 
H          H       0.50959   0.38213   0.39578 
H          H       0.61787   0.50959   0.60422 
H          H       0.38213   0.49041   0.60422 
H          H       0.00959   0.61787   0.35422 
H          H       0.99041   0.38213   0.35422 
H          H       0.88213   0.50959   0.14578 
H          H       0.11787   0.49041   0.14578 
H          H       0.99041   0.11787   0.89578 
H          H       0.00959   0.88213   0.89578 
H          H       0.11787   0.00959   0.10422 
H          H       0.88213   0.99041   0.10422 
H          H       0.50959   0.11787   0.85422 
H          H       0.49041   0.88213   0.85422 
H          H       0.38213   0.00959   0.64578 
H          H       0.61787   0.99041   0.64578 
H          H       0.69920   0.61456   0.99844 
H          H       0.30080   0.38544   0.99844 
H          H       0.61456   0.30080   0.00156 
H          H       0.38544   0.69920   0.00156 
H          H       0.80080   0.61456   0.75156 
H          H       0.19920   0.38544   0.75156 
H          H       0.88544   0.30080   0.74844 
H          H       0.11456   0.69920   0.74844 
H          H       0.19920   0.11456   0.49844 
H          H       0.80080   0.88544   0.49844 
H          H       0.11456   0.80080   0.50156 
H          H       0.88544   0.19920   0.50156 
H          H       0.30080   0.11456   0.25156 
H          H       0.69920   0.88544   0.25156 
H          H       0.38544   0.80080   0.24844 
H          H       0.61456   0.19920   0.24844 
H          H       0.78211   0.64318   0.12032 
H          H       0.21789   0.35682   0.12032 
H          H       0.64318   0.21789   0.87968 
H          H       0.35682   0.78211   0.87968 
H          H       0.71789   0.64318   0.62968 
H          H       0.28211   0.35682   0.62968 
H          H       0.85682   0.21789   0.87032 
H          H       0.14318   0.78211   0.87032 
H          H       0.28211   0.14318   0.62032 
H          H       0.71789   0.85682   0.62032 
H          H       0.14318   0.71789   0.37968 
H          H       0.85682   0.28211   0.37968 
H          H       0.21789   0.14318   0.12968 
H          H       0.78211   0.85682   0.12968 
H          H       0.35682   0.71789   0.37032 
H          H       0.64318   0.28211   0.37032 
Cl         Cl      0.89745   0.68078   0.08831 
Cl         Cl      0.10255   0.31922   0.08831 
Cl         Cl      0.68078   0.10255   0.91169 
Cl         Cl      0.31922   0.89745   0.91169 
Cl         Cl      0.60255   0.68078   0.66169 
Cl         Cl      0.39745   0.31922   0.66169 
Cl         Cl      0.81922   0.10255   0.83831 
Cl         Cl      0.18078   0.89745   0.83831 
Cl         Cl      0.39745   0.18078   0.58831 
Cl         Cl      0.60255   0.81922   0.58831 
Cl         Cl      0.18078   0.60255   0.41169 
Cl         Cl      0.81922   0.39745   0.41169 
Cl         Cl      0.10255   0.18078   0.16169 
Cl         Cl      0.89745   0.81922   0.16169 
Cl         Cl      0.31922   0.60255   0.33831 
Cl         Cl      0.68078   0.39745   0.33831 
H          H       0.52310   0.70446   0.27586 
H          H       0.47690   0.29554   0.27586 
H          H       0.70446   0.47690   0.72414 
H          H       0.29554   0.52310   0.72414 
H          H       0.97690   0.70446   0.47414 
H          H       0.02310   0.29554   0.47414 
H          H       0.79554   0.47690   0.02586 
H          H       0.20446   0.52310   0.02586 
H          H       0.02310   0.20446   0.77586 
H          H       0.97690   0.79554   0.77586 
H          H       0.20446   0.97690   0.22414 
H          H       0.79554   0.02310   0.22414 
H          H       0.47690   0.20446   0.97414 
H          H       0.52310   0.79554   0.97414 
H          H       0.29554   0.97690   0.52586 
H          H       0.70446   0.02310   0.52586 
C          C       0.50000   0.50000   0.50000 
C          C       0.00000   0.50000   0.25000 
C          C       0.00000   0.00000   0.00000 
C          C       0.50000   0.00000   0.75000 
