data_crystal
 
_cell_length_a    32.96000
_cell_length_b    32.96000
_cell_length_c    7.24000
_cell_angle_alpha 90.00000
_cell_angle_beta  90.00000
_cell_angle_gamma 120.00000
 
_symmetry_space_group_name_Hall 'P 1'
_symmetry_space_group_name_H-M  'P 1'
 
loop_
_symmetry_equiv_pos_as_xyz
 'x,y,z' 
 
loop_
_atom_site_label
_atom_site_type_symbol
_atom_site_fract_x
_atom_site_fract_y
_atom_site_fract_z
C          C       0.12781   0.34631   0.05380 
C          C       0.65369   0.78150   0.05380 
C          C       0.21850   0.87219   0.05380 
C          C       0.11484   0.29448   0.05360 
C          C       0.70552   0.82036   0.05360 
C          C       0.17964   0.88516   0.05360 
C          C       0.15370   0.28151   0.05412 
C          C       0.71849   0.87219   0.05412 
C          C       0.12781   0.84630   0.05412 
C          C       0.19262   0.43699   0.05415 
C          C       0.56301   0.75563   0.05415 
C          C       0.24437   0.80738   0.05415 
O          O       0.15456   0.44978   0.05382 
O          O       0.55022   0.70478   0.05382 
O          O       0.29522   0.84544   0.05382 
N          N       0.08990   0.19163   0.05389 
N          N       0.80837   0.89827   0.05389 
N          N       0.10173   0.91010   0.05389 
N          N       0.25611   0.52489   0.05414 
N          N       0.47511   0.73122   0.05414 
N          N       0.26878   0.74389   0.05414 
C          C       0.30699   0.56285   0.05406 
C          C       0.43715   0.74414   0.05406 
C          C       0.25586   0.69301   0.05406 
C          C       0.32023   0.61476   0.05400 
C          C       0.38524   0.70547   0.05400 
C          C       0.29453   0.67977   0.05400 
C          C       0.28160   0.62808   0.05406 
C          C       0.37192   0.65352   0.05406 
C          C       0.34648   0.71840   0.05406 
O          O       0.23065   0.59030   0.05405 
O          O       0.40970   0.64035   0.05405 
O          O       0.35965   0.76935   0.05405 
H          H       0.07647   0.26571   0.05307 
H          H       0.73429   0.81076   0.05307 
H          H       0.18924   0.92353   0.05307 
H          H       0.33565   0.55309   0.05403 
H          H       0.44691   0.78256   0.05403 
H          H       0.21744   0.66435   0.05403 
C          C       0.20553   0.32035   0.05440 
C          C       0.67965   0.88518   0.05440 
C          C       0.11482   0.79447   0.05440 
C          C       0.21850   0.37218   0.05460 
C          C       0.62782   0.84632   0.05460 
C          C       0.15368   0.78150   0.05460 
C          C       0.17964   0.38515   0.05408 
C          C       0.61485   0.79449   0.05408 
C          C       0.20551   0.82036   0.05408 
C          C       0.14072   0.22967   0.05405 
C          C       0.77033   0.91105   0.05405 
C          C       0.08895   0.85928   0.05405 
O          O       0.17878   0.21688   0.05438 
O          O       0.78312   0.96190   0.05438 
O          O       0.03810   0.82122   0.05438 
N          N       0.24344   0.47503   0.05431 
N          N       0.52497   0.76841   0.05431 
N          N       0.23159   0.75656   0.05431 
N          N       0.07723   0.14177   0.05406 
N          N       0.85823   0.93546   0.05406 
N          N       0.06454   0.92277   0.05406 
C          C       0.02635   0.10381   0.05414 
C          C       0.89619   0.92254   0.05414 
C          C       0.07746   0.97365   0.05414 
C          C       0.01311   0.05190   0.05420 
C          C       0.94810   0.96121   0.05420 
C          C       0.03879   0.98689   0.05420 
C          C       0.05174   0.03858   0.05414 
C          C       0.96142   0.01316   0.05414 
C          C       0.98684   0.94826   0.05414 
O          O       0.10269   0.07636   0.05415 
O          O       0.92364   0.02633   0.05415 
O          O       0.97367   0.89731   0.05415 
H          H       0.25687   0.40095   0.05513 
H          H       0.59905   0.85592   0.05513 
H          H       0.14408   0.74313   0.05513 
H          H       0.11589   0.00231   0.05417 
H          H       0.99769   0.11358   0.05417 
H          H       0.88642   0.88411   0.05417 
C          C       0.10482   0.36310   0.05380 
C          C       0.63690   0.74172   0.05380 
C          C       0.25828   0.89518   0.05380 
N          N       0.05087   0.33333   0.05380 
N          N       0.66667   0.71754   0.05380 
N          N       0.28246   0.94913   0.05380 
C          C       0.02136   0.28783   0.14085 
C          C       0.71217   0.73353   0.14085 
C          C       0.26647   0.97864   0.14085 
C          C       0.30069   0.03066   0.10760 
C          C       0.96934   0.27003   0.10760 
C          C       0.72997   0.69931   0.10760 
N          N       0.33772   0.03330   0.00000 
N          N       0.96670   0.30442   0.00000 
N          N       0.69558   0.66228   0.00000 
C          C       0.01709   0.34349   0.96675 
C          C       0.65651   0.67360   0.96675 
C          C       0.32640   0.98291   0.96675 
C          C       0.38661   0.07525   0.00000 
C          C       0.92475   0.31136   0.00000 
C          C       0.68864   0.61339   0.00000 
C          C       0.39856   0.12679   0.00000 
C          C       0.87321   0.27177   0.00000 
C          C       0.72823   0.60144   0.00000 
C          C       0.44998   0.16667   0.00000 
C          C       0.83333   0.28331   0.00000 
C          C       0.71669   0.55002   0.00000 
Br         Br      0.03014   0.39581   0.08731 
Br         Br      0.60419   0.63433   0.08731 
Br         Br      0.36567   0.96986   0.08731 
H          H       0.11536   0.38737   0.95557 
H          H       0.61263   0.72799   0.95557 
H          H       0.27201   0.88464   0.95557 
H          H       0.11255   0.38578   0.15498 
H          H       0.61422   0.72677   0.15498 
H          H       0.27323   0.88745   0.15498 
H          H       0.03156   0.26752   0.21876 
H          H       0.73248   0.76404   0.21876 
H          H       0.23596   0.96844   0.21876 
H          H       0.29551   0.05897   0.16090 
H          H       0.94103   0.23654   0.16090 
H          H       0.76346   0.70449   0.16090 
H          H       0.02346   0.37299   0.88885 
H          H       0.62701   0.65047   0.88885 
H          H       0.34953   0.97654   0.88885 
H          H       0.40555   0.07087   0.90284 
H          H       0.92913   0.33468   0.90284 
H          H       0.66532   0.59445   0.90284 
H          H       0.40611   0.07433   0.10118 
H          H       0.92567   0.33178   0.10118 
H          H       0.66822   0.59389   0.10118 
H          H       0.36925   0.13563   0.00000 
H          H       0.86437   0.23362   0.00000 
H          H       0.76638   0.63075   0.00000 
H          H       0.46142   0.19828   0.92597 
H          H       0.80172   0.26314   0.92597 
H          H       0.73686   0.53858   0.92597 
H          H       0.47659   0.16453   0.07404 
H          H       0.83547   0.31206   0.07404 
H          H       0.68794   0.52341   0.07404 
H          H       0.23229   0.30806   0.05440 
H          H       0.69194   0.92423   0.05440 
H          H       0.07577   0.76771   0.05440 
C          C       0.32036   0.11482   0.55380 
C          C       0.88518   0.20554   0.55380 
C          C       0.79446   0.67964   0.55380 
C          C       0.37219   0.15368   0.55360 
C          C       0.84632   0.21851   0.55360 
C          C       0.78149   0.62781   0.55360 
C          C       0.38516   0.20551   0.55412 
C          C       0.79449   0.17965   0.55412 
C          C       0.82035   0.61484   0.55412 
C          C       0.22968   0.08895   0.55415 
C          C       0.91105   0.14073   0.55415 
C          C       0.85927   0.77032   0.55415 
O          O       0.21689   0.03810   0.55382 
O          O       0.96190   0.17879   0.55382 
O          O       0.82121   0.78311   0.55382 
N          N       0.47504   0.23159   0.55389 
N          N       0.76841   0.24345   0.55389 
N          N       0.75655   0.52496   0.55389 
N          N       0.14178   0.06454   0.55414 
N          N       0.93546   0.07724   0.55414 
N          N       0.92276   0.85822   0.55414 
C          C       0.10382   0.07746   0.55406 
C          C       0.92254   0.02636   0.55406 
C          C       0.97364   0.89618   0.55406 
C          C       0.05191   0.03879   0.55400 
C          C       0.96121   0.01312   0.55400 
C          C       0.98688   0.94809   0.55400 
C          C       0.01316   0.05174   0.55406 
C          C       0.94826   0.96142   0.55406 
C          C       0.03858   0.98684   0.55406 
O          O       0.02633   0.10269   0.55405 
O          O       0.89731   0.92364   0.55405 
O          O       0.07636   0.97367   0.55405 
H          H       0.40096   0.14408   0.55307 
H          H       0.85592   0.25688   0.55307 
H          H       0.74312   0.59904   0.55307 
H          H       0.11357   0.11588   0.55403 
H          H       0.88412   0.99769   0.55403 
H          H       0.00231   0.88643   0.55403 
C          C       0.34632   0.21850   0.55440 
C          C       0.78150   0.12782   0.55440 
C          C       0.87218   0.65368   0.55440 
C          C       0.29449   0.17964   0.55460 
C          C       0.82036   0.11485   0.55460 
C          C       0.88515   0.70551   0.55460 
C          C       0.28152   0.12781   0.55408 
C          C       0.87219   0.15371   0.55408 
C          C       0.84629   0.71848   0.55408 
C          C       0.43700   0.24437   0.55405 
C          C       0.75563   0.19263   0.55405 
C          C       0.80737   0.56300   0.55405 
O          O       0.44979   0.29522   0.55438 
O          O       0.70478   0.15457   0.55438 
O          O       0.84543   0.55021   0.55438 
N          N       0.19164   0.10173   0.55431 
N          N       0.89827   0.08991   0.55431 
N          N       0.91009   0.80836   0.55431 
N          N       0.52490   0.26878   0.55406 
N          N       0.73122   0.25612   0.55406 
N          N       0.74388   0.47510   0.55406 
C          C       0.56286   0.25586   0.55414 
C          C       0.74414   0.30700   0.55414 
C          C       0.69300   0.43714   0.55414 
C          C       0.61477   0.29453   0.55420 
C          C       0.70547   0.32024   0.55420 
C          C       0.67976   0.38523   0.55420 
C          C       0.65352   0.28160   0.55414 
C          C       0.71840   0.37192   0.55414 
C          C       0.62808   0.34648   0.55414 
O          O       0.64035   0.23065   0.55415 
O          O       0.76935   0.40970   0.55415 
O          O       0.59030   0.35965   0.55415 
H          H       0.26572   0.18925   0.55513 
H          H       0.81075   0.07647   0.55513 
H          H       0.92353   0.73428   0.55513 
H          H       0.55310   0.21745   0.55417 
H          H       0.78255   0.33565   0.55417 
H          H       0.66435   0.44690   0.55417 
C          C       0.30356   0.07504   0.55380 
C          C       0.92496   0.22852   0.55380 
C          C       0.77148   0.69644   0.55380 
N          N       0.33333   0.05096   0.55380 
N          N       0.94904   0.28237   0.55380 
N          N       0.71763   0.66667   0.55380 
C          C       0.37884   0.06686   0.64085 
C          C       0.93314   0.31198   0.64085 
C          C       0.68802   0.62116   0.64085 
C          C       0.39666   0.03265   0.60760 
C          C       0.96735   0.36401   0.60760 
C          C       0.63599   0.60334   0.60760 
N          N       0.00439   0.36664   0.50000 
N          N       0.63336   0.63775   0.50000 
N          N       0.36225   0.99561   0.50000 
C          C       0.32319   0.00693   0.46675 
C          C       0.99307   0.31626   0.46675 
C          C       0.68374   0.67681   0.46675 
C          C       0.05328   0.40858   0.50000 
C          C       0.59142   0.64470   0.50000 
C          C       0.35530   0.94672   0.50000 
C          C       0.06523   0.46012   0.50000 
C          C       0.53988   0.60511   0.50000 
C          C       0.39489   0.93477   0.50000 
C          C       0.11664   0.50000   0.50000 
C          C       0.50000   0.61664   0.50000 
C          C       0.38336   0.88336   0.50000 
Br         Br      0.03236   0.30320   0.58731 
Br         Br      0.69680   0.72916   0.58731 
Br         Br      0.27084   0.96764   0.58731 
H          H       0.27929   0.06131   0.45557 
H          H       0.93869   0.21798   0.45557 
H          H       0.78202   0.72071   0.45557 
H          H       0.28089   0.06010   0.65498 
H          H       0.93990   0.22079   0.65498 
H          H       0.77921   0.71911   0.65498 
H          H       0.39915   0.09736   0.71876 
H          H       0.90264   0.30179   0.71876 
H          H       0.69821   0.60085   0.71876 
H          H       0.43015   0.03783   0.66090 
H          H       0.96217   0.39232   0.66090 
H          H       0.60768   0.56985   0.66090 
H          H       0.01621   0.30987   0.38885 
H          H       0.69013   0.70634   0.38885 
H          H       0.29366   0.98379   0.38885 
H          H       0.07222   0.40421   0.40284 
H          H       0.59579   0.66801   0.40284 
H          H       0.33199   0.92778   0.40284 
H          H       0.07277   0.40767   0.60118 
H          H       0.59233   0.66510   0.60118 
H          H       0.33490   0.92723   0.60118 
H          H       0.03592   0.46896   0.50000 
H          H       0.53104   0.56696   0.50000 
H          H       0.43304   0.96408   0.50000 
H          H       0.12809   0.53161   0.42597 
H          H       0.46839   0.59648   0.42597 
H          H       0.40352   0.87191   0.42597 
H          H       0.14326   0.49786   0.57404 
H          H       0.50214   0.64540   0.57404 
H          H       0.35460   0.85674   0.57404 
H          H       0.35861   0.25756   0.55440 
H          H       0.74244   0.10105   0.55440 
H          H       0.89895   0.64139   0.55440 
