data_crystal

_cell_length_a    33.25000
_cell_length_b    34.30000
_cell_length_c    7.78000
_cell_angle_alpha 90.00000
_cell_angle_beta  90.00000
_cell_angle_gamma 90.00000

_space_group_name_Hall 'P 1'
_space_group_name_H-M_alt  'P 1'

loop_
_symmetry_equiv_pos_as_xyz
'x,y,z' 

loop_
_atom_site_label
_atom_site_type_symbol
_atom_site_fract_x
_atom_site_fract_y
_atom_site_fract_z
C          C       0.41930   0.53578   0.18149 
C          C       0.45972   0.53586   0.21246 
C          C       0.48070   0.57065   0.23079 
C          C       0.39329   0.56867   0.19113 
C          C       0.59432   0.39734   0.40997 
C          C       0.62043   0.36509   0.39596 
C          C       0.66018   0.36671   0.28215 
C          C       0.67385   0.40041   0.18144 
C          C       0.64700   0.43227   0.19379 
N          N       0.68243   0.33429   0.27992 
C          C       0.72105   0.32476   0.19331 
C          C       0.73505   0.28743   0.22173 
C          C       0.70829   0.25900   0.32197 
C          C       0.72308   0.22199   0.35043 
H          H       0.46862   0.59736   0.21848 
H          H       0.56597   0.39525   0.49395 
H          H       0.61023   0.34068   0.46986 
H          H       0.70276   0.40199   0.09829 
H          H       0.65721   0.45619   0.11664 
H          H       0.73974   0.34416   0.11067 
H          H       0.67762   0.26466   0.37606 
H          H       0.70296   0.20215   0.42368 
C          C       0.91930   0.03578   0.18149 
C          C       0.95972   0.03586   0.21246 
C          C       0.98070   0.07065   0.23079 
C          C       0.89329   0.06867   0.19113 
C          C       0.09432   0.89734   0.40997 
C          C       0.12043   0.86509   0.39596 
C          C       0.16018   0.86671   0.28215 
C          C       0.17385   0.90041   0.18144 
C          C       0.14700   0.93227   0.19379 
N          N       0.18243   0.83429   0.27992 
C          C       0.22105   0.82476   0.19331 
C          C       0.23505   0.78743   0.22173 
C          C       0.20829   0.75900   0.32197 
C          C       0.22308   0.72199   0.35043 
H          H       0.96862   0.09736   0.21848 
H          H       0.06597   0.89525   0.49395 
H          H       0.11023   0.84068   0.46986 
H          H       0.20276   0.90199   0.09829 
H          H       0.15721   0.95619   0.11664 
H          H       0.23974   0.84416   0.11067 
O          O       0.17762   0.76466   0.37606 
O          O       0.20296   0.70215   0.42368 
C          C       0.58070   0.53578   0.31851 
C          C       0.54028   0.53586   0.28754 
C          C       0.51930   0.57065   0.26921 
C          C       0.60671   0.56867   0.30887 
C          C       0.40568   0.39734   0.09004 
C          C       0.37957   0.36509   0.10404 
C          C       0.33982   0.36671   0.21785 
C          C       0.32615   0.40041   0.31856 
C          C       0.35300   0.43227   0.30622 
N          N       0.31757   0.33429   0.22008 
C          C       0.27895   0.32476   0.30669 
C          C       0.26495   0.28743   0.27827 
C          C       0.29171   0.25900   0.17802 
C          C       0.27692   0.22199   0.14957 
H          H       0.53138   0.59736   0.28152 
H          H       0.43403   0.39525   0.00605 
H          H       0.38977   0.34068   0.03014 
H          H       0.29724   0.40199   0.40171 
H          H       0.34279   0.45619   0.38336 
H          H       0.26026   0.34416   0.38933 
O          O       0.32238   0.26466   0.12394 
O          O       0.29704   0.20215   0.07631 
C          C       0.08070   0.03578   0.31851 
C          C       0.04028   0.03586   0.28754 
C          C       0.01930   0.07065   0.26921 
C          C       0.10671   0.06867   0.30887 
C          C       0.90568   0.89734   0.09004 
C          C       0.87957   0.86509   0.10404 
C          C       0.83982   0.86671   0.21785 
C          C       0.82615   0.90041   0.31856 
C          C       0.85300   0.93227   0.30622 
N          N       0.81757   0.83429   0.22008 
C          C       0.77895   0.82476   0.30669 
C          C       0.76495   0.78743   0.27827 
C          C       0.79171   0.75900   0.17802 
C          C       0.77692   0.72199   0.14957 
H          H       0.03138   0.09736   0.28152 
H          H       0.93403   0.89525   0.00605 
H          H       0.88977   0.84068   0.03014 
H          H       0.79724   0.90199   0.40171 
H          H       0.84279   0.95619   0.38336 
H          H       0.76026   0.84416   0.38933 
H          H       0.82238   0.76466   0.12394 
H          H       0.79704   0.70215   0.07631 
C          C       0.58070   0.46422   0.31851 
C          C       0.54028   0.46414   0.28754 
C          C       0.51930   0.42935   0.26921 
C          C       0.60671   0.43133   0.30887 
C          C       0.40568   0.60266   0.09004 
C          C       0.37957   0.63491   0.10404 
C          C       0.33982   0.63329   0.21785 
C          C       0.32615   0.59959   0.31856 
C          C       0.35300   0.56773   0.30622 
N          N       0.31757   0.66571   0.22008 
C          C       0.27895   0.67524   0.30669 
C          C       0.26495   0.71257   0.27827 
C          C       0.29171   0.74100   0.17802 
C          C       0.27692   0.77801   0.14957 
H          H       0.53138   0.40264   0.28152 
H          H       0.43403   0.60475   0.00605 
H          H       0.38977   0.65932   0.03014 
H          H       0.29724   0.59801   0.40171 
H          H       0.34279   0.54381   0.38336 
H          H       0.26026   0.65584   0.38933 
H          H       0.32238   0.73534   0.12394 
H          H       0.29704   0.79785   0.07631 
C          C       0.08070   0.96422   0.31851 
C          C       0.04028   0.96414   0.28754 
C          C       0.01930   0.92935   0.26921 
C          C       0.10671   0.93133   0.30887 
C          C       0.90568   0.10266   0.09004 
C          C       0.87957   0.13491   0.10404 
C          C       0.83982   0.13329   0.21785 
C          C       0.82615   0.09959   0.31856 
C          C       0.85300   0.06773   0.30622 
N          N       0.81757   0.16571   0.22008 
C          C       0.77895   0.17524   0.30669 
C          C       0.76495   0.21257   0.27827 
C          C       0.79171   0.24100   0.17802 
C          C       0.77692   0.27801   0.14957 
H          H       0.03138   0.90264   0.28152 
H          H       0.93403   0.10475   0.00605 
H          H       0.88977   0.15932   0.03014 
H          H       0.79724   0.09801   0.40171 
H          H       0.84279   0.04381   0.38336 
H          H       0.76026   0.15584   0.38933 
O          O       0.82238   0.23534   0.12394 
O          O       0.79704   0.29785   0.07631 
C          C       0.41930   0.46422   0.18149 
C          C       0.45972   0.46414   0.21246 
C          C       0.48070   0.42935   0.23079 
C          C       0.39329   0.43133   0.19113 
C          C       0.59432   0.60266   0.40997 
C          C       0.62043   0.63491   0.39596 
C          C       0.66018   0.63329   0.28215 
C          C       0.67385   0.59959   0.18144 
C          C       0.64700   0.56773   0.19379 
N          N       0.68243   0.66571   0.27992 
C          C       0.72105   0.67524   0.19331 
C          C       0.73505   0.71257   0.22173 
C          C       0.70829   0.74100   0.32197 
C          C       0.72308   0.77801   0.35043 
H          H       0.46862   0.40264   0.21848 
H          H       0.56597   0.60475   0.49395 
H          H       0.61023   0.65932   0.46986 
H          H       0.70276   0.59801   0.09829 
H          H       0.65721   0.54381   0.11664 
H          H       0.73974   0.65584   0.11067 
O          O       0.67762   0.73534   0.37606 
O          O       0.70296   0.79785   0.42368 
C          C       0.91930   0.96422   0.18149 
C          C       0.95972   0.96414   0.21246 
C          C       0.98070   0.92935   0.23079 
C          C       0.89329   0.93133   0.19113 
C          C       0.09432   0.10266   0.40997 
C          C       0.12043   0.13491   0.39596 
C          C       0.16018   0.13329   0.28215 
C          C       0.17385   0.09959   0.18144 
C          C       0.14700   0.06773   0.19379 
N          N       0.18243   0.16571   0.27992 
C          C       0.22105   0.17524   0.19331 
C          C       0.23505   0.21257   0.22173 
C          C       0.20829   0.24100   0.32197 
C          C       0.22308   0.27801   0.35043 
H          H       0.96862   0.90264   0.21848 
H          H       0.06597   0.10475   0.49395 
H          H       0.11023   0.15932   0.46986 
H          H       0.20276   0.09801   0.09829 
H          H       0.15721   0.04381   0.11664 
H          H       0.23974   0.15584   0.11067 
H          H       0.17762   0.23534   0.37606 
H          H       0.20296   0.29785   0.42368 
C          C       0.52000   0.50000   0.26963 
C          C       0.59844   0.50000   0.34761 
H          H       0.62624   0.50000   0.38350 
C          C       0.02000  -0.00000   0.26963 
C          C       0.09844  -0.00000   0.34761 
H          H       0.12624  -0.00000   0.38350 
C          C       0.48000   0.50000   0.23037 
C          C       0.40156   0.50000   0.15239 
H          H       0.37376   0.50000   0.11650 
C          C       0.98000  -0.00000   0.23037 
C          C       0.90156  -0.00000   0.15239 
H          H       0.87376  -0.00000   0.11650 
V          V       0.15303   0.71659   0.48344 
O          O       0.11399   0.69201   1.07857 
V          V       0.35087   0.21973   0.02401 
O          O       0.39360   0.20414  -0.02337 
V          V       0.84553   0.27879   0.10104 
O          O       0.88375   0.29540   0.05804 
V          V       0.65696   0.78264   0.40427 
O          O       0.61279   0.79741   0.45003 
C          C       0.41930   0.53578   0.68149 
C          C       0.45972   0.53586   0.71245 
C          C       0.48070   0.57065   0.73079 
C          C       0.39329   0.56867   0.69113 
C          C       0.59432   0.39734   0.90996 
C          C       0.62043   0.36509   0.89596 
C          C       0.66018   0.36671   0.78215 
C          C       0.67385   0.40041   0.68144 
C          C       0.64700   0.43227   0.69378 
N          N       0.68243   0.33429   0.77992 
C          C       0.72105   0.32476   0.69331 
C          C       0.73505   0.28743   0.72172 
C          C       0.70829   0.25900   0.82197 
C          C       0.72308   0.22199   0.85043 
H          H       0.46862   0.59736   0.71848 
H          H       0.56597   0.39525   0.99395 
H          H       0.61023   0.34068   0.96986 
H          H       0.70276   0.40199   0.59829 
H          H       0.65721   0.45619   0.61664 
H          H       0.73974   0.34416   0.61067 
H          H       0.67762   0.26466   0.87606 
H          H       0.70296   0.20215   0.92368 
C          C       0.91930   0.03578   0.68149 
C          C       0.95972   0.03586   0.71245 
C          C       0.98070   0.07065   0.73079 
C          C       0.89329   0.06867   0.69113 
C          C       0.09432   0.89734   0.90996 
C          C       0.12043   0.86509   0.89596 
C          C       0.16018   0.86671   0.78215 
C          C       0.17385   0.90041   0.68144 
C          C       0.14700   0.93227   0.69378 
N          N       0.18243   0.83429   0.77992 
C          C       0.22105   0.82476   0.69331 
C          C       0.23505   0.78743   0.72172 
C          C       0.20829   0.75900   0.82197 
C          C       0.22308   0.72199   0.85043 
H          H       0.96862   0.09736   0.71848 
H          H       0.06597   0.89525   0.99395 
H          H       0.11023   0.84068   0.96986 
H          H       0.20276   0.90199   0.59829 
H          H       0.15721   0.95619   0.61664 
H          H       0.23974   0.84416   0.61067 
O          O       0.17762   0.76466   0.87606 
O          O       0.20296   0.70215   0.92368 
C          C       0.58070   0.53578   0.81852 
C          C       0.54028   0.53586   0.78754 
C          C       0.51930   0.57065   0.76921 
C          C       0.60671   0.56867   0.80887 
C          C       0.40568   0.39734   0.59003 
C          C       0.37957   0.36509   0.60404 
C          C       0.33982   0.36671   0.71784 
C          C       0.32615   0.40041   0.81856 
C          C       0.35300   0.43227   0.80622 
N          N       0.31757   0.33429   0.72008 
C          C       0.27895   0.32476   0.80669 
C          C       0.26495   0.28743   0.77827 
C          C       0.29171   0.25900   0.67802 
C          C       0.27692   0.22199   0.64957 
H          H       0.53138   0.59736   0.78152 
H          H       0.43403   0.39525   0.50605 
H          H       0.38977   0.34068   0.53014 
H          H       0.29724   0.40199   0.90171 
H          H       0.34279   0.45619   0.88336 
H          H       0.26026   0.34416   0.88933 
O          O       0.32238   0.26466   0.62394 
O          O       0.29704   0.20215   0.57631 
C          C       0.08070   0.03578   0.81852 
C          C       0.04028   0.03586   0.78754 
C          C       0.01930   0.07065   0.76921 
C          C       0.10671   0.06867   0.80887 
C          C       0.90568   0.89734   0.59003 
C          C       0.87957   0.86509   0.60404 
C          C       0.83982   0.86671   0.71784 
C          C       0.82615   0.90041   0.81856 
C          C       0.85300   0.93227   0.80622 
N          N       0.81757   0.83429   0.72008 
C          C       0.77895   0.82476   0.80669 
C          C       0.76495   0.78743   0.77827 
C          C       0.79171   0.75900   0.67802 
C          C       0.77692   0.72199   0.64957 
H          H       0.03138   0.09736   0.78152 
H          H       0.93403   0.89525   0.50605 
H          H       0.88977   0.84068   0.53014 
H          H       0.79724   0.90199   0.90171 
H          H       0.84279   0.95619   0.88336 
H          H       0.76026   0.84416   0.88933 
H          H       0.82238   0.76466   0.62394 
H          H       0.79704   0.70215   0.57631 
C          C       0.58070   0.46422   0.81852 
C          C       0.54028   0.46414   0.78754 
C          C       0.51930   0.42935   0.76921 
C          C       0.60671   0.43133   0.80887 
C          C       0.40568   0.60266   0.59003 
C          C       0.37957   0.63491   0.60404 
C          C       0.33982   0.63329   0.71784 
C          C       0.32615   0.59959   0.81856 
C          C       0.35300   0.56773   0.80622 
N          N       0.31757   0.66571   0.72008 
C          C       0.27895   0.67524   0.80669 
C          C       0.26495   0.71257   0.77827 
C          C       0.29171   0.74100   0.67802 
C          C       0.27692   0.77801   0.64957 
H          H       0.53138   0.40264   0.78152 
H          H       0.43403   0.60475   0.50605 
H          H       0.38977   0.65932   0.53014 
H          H       0.29724   0.59801   0.90171 
H          H       0.34279   0.54381   0.88336 
H          H       0.26026   0.65584   0.88933 
H          H       0.32238   0.73534   0.62394 
H          H       0.29704   0.79785   0.57631 
C          C       0.08070   0.96422   0.81852 
C          C       0.04028   0.96414   0.78754 
C          C       0.01930   0.92935   0.76921 
C          C       0.10671   0.93133   0.80887 
C          C       0.90568   0.10266   0.59003 
C          C       0.87957   0.13491   0.60404 
C          C       0.83982   0.13329   0.71784 
C          C       0.82615   0.09959   0.81856 
C          C       0.85300   0.06773   0.80622 
N          N       0.81757   0.16571   0.72008 
C          C       0.77895   0.17524   0.80669 
C          C       0.76495   0.21257   0.77827 
C          C       0.79171   0.24100   0.67802 
C          C       0.77692   0.27801   0.64957 
H          H       0.03138   0.90264   0.78152 
H          H       0.93403   0.10475   0.50605 
H          H       0.88977   0.15932   0.53014 
H          H       0.79724   0.09801   0.90171 
H          H       0.84279   0.04381   0.88336 
H          H       0.76026   0.15584   0.88933 
O          O       0.82238   0.23534   0.62394 
O          O       0.79704   0.29785   0.57631 
C          C       0.41930   0.46422   0.68149 
C          C       0.45972   0.46414   0.71245 
C          C       0.48070   0.42935   0.73079 
C          C       0.39329   0.43133   0.69113 
C          C       0.59432   0.60266   0.90996 
C          C       0.62043   0.63491   0.89596 
C          C       0.66018   0.63329   0.78215 
C          C       0.67385   0.59959   0.68144 
C          C       0.64700   0.56773   0.69378 
N          N       0.68243   0.66571   0.77992 
C          C       0.72105   0.67524   0.69331 
C          C       0.73505   0.71257   0.72172 
C          C       0.70829   0.74100   0.82197 
C          C       0.72308   0.77801   0.85043 
H          H       0.46862   0.40264   0.71848 
H          H       0.56597   0.60475   0.99395 
H          H       0.61023   0.65932   0.96986 
H          H       0.70276   0.59801   0.59829 
H          H       0.65721   0.54381   0.61664 
H          H       0.73974   0.65584   0.61067 
O          O       0.67762   0.73534   0.87606 
O          O       0.70296   0.79785   0.92368 
C          C       0.91930   0.96422   0.68149 
C          C       0.95972   0.96414   0.71245 
C          C       0.98070   0.92935   0.73079 
C          C       0.89329   0.93133   0.69113 
C          C       0.09432   0.10266   0.90996 
C          C       0.12043   0.13491   0.89596 
C          C       0.16018   0.13329   0.78215 
C          C       0.17385   0.09959   0.68144 
C          C       0.14700   0.06773   0.69378 
N          N       0.18243   0.16571   0.77992 
C          C       0.22105   0.17524   0.69331 
C          C       0.23505   0.21257   0.72172 
C          C       0.20829   0.24100   0.82197 
C          C       0.22308   0.27801   0.85043 
H          H       0.96862   0.90264   0.71848 
H          H       0.06597   0.10475   0.99395 
H          H       0.11023   0.15932   0.96986 
H          H       0.20276   0.09801   0.59829 
H          H       0.15721   0.04381   0.61664 
H          H       0.23974   0.15584   0.61067 
H          H       0.17762   0.23534   0.87606 
H          H       0.20296   0.29785   0.92368 
C          C       0.52000   0.50000   0.76963 
C          C       0.59844   0.50000   0.84761 
H          H       0.62624   0.50000   0.88350 
C          C       0.02000  -0.00000   0.76963 
C          C       0.09844  -0.00000   0.84761 
H          H       0.12624  -0.00000   0.88350 
C          C       0.48000   0.50000   0.73037 
C          C       0.40156   0.50000   0.65239 
H          H       0.37376   0.50000   0.61649 
C          C       0.98000  -0.00000   0.73037 
C          C       0.90156  -0.00000   0.65239 
H          H       0.87376  -0.00000   0.61649 
V          V       0.15076   0.71376   0.98358 
O          O       0.11257   0.69895   0.59816 
V          V       0.34829   0.21963   0.52493 
O          O       0.39347   0.20456   0.49417 
V          V       0.84249   0.27680   0.60125 
O          O       0.88747   0.28745   0.55672 
V          V       0.65988   0.77851   0.90496 
O          O       0.61106   0.79212   0.95073 
