data_crystal
 
_cell_length_a    37.14000
_cell_length_b    37.14000
_cell_length_c    7.18000
_cell_angle_alpha 90.00000
_cell_angle_beta  90.00000
_cell_angle_gamma 120.00000
 
_symmetry_space_group_name_Hall 'P 1'
_symmetry_space_group_name_H-M  'P 1'
 
loop_
_symmetry_equiv_pos_as_xyz
 'x,y,z' 
 
loop_
_atom_site_label
_atom_site_type_symbol
_atom_site_fract_x
_atom_site_fract_y
_atom_site_fract_z
C          C       0.88384   0.57538   0.24280 
C          C       0.94904   0.63981   0.27315 
C          C       0.02650   0.53975   0.23574 
C          C       0.00683   0.49739   0.26493 
C          C       0.06929   0.55950   0.20701 
C          C       0.02909   0.47541   0.26393 
C          C       0.09088   0.53823   0.20615 
C          C       0.07145   0.49543   0.23380 
O          O       0.48913   0.52030   0.27954 
O          O       0.96631   0.47501   0.29556 
N          N       0.96781   0.55021   0.26022 
N          N       0.41414   0.44460   0.25115 
C          C       0.09626   0.47504   0.22728 
N          N       0.21588   0.37400   0.24959 
N          N       0.15174   0.30958   0.24332 
N          N       0.21575   0.31014   0.25006 
N          N       0.84191   0.68446   0.24605 
N          N       0.90558   0.68441   0.25406 
N          N       0.84098   0.62030   0.25346 
C          C       0.14987   0.43924   0.26582 
C          C       0.08513   0.37392   0.23403 
C          C       0.90482   0.55322   0.24367 
C          C       0.97036   0.61793   0.27398 
C          C       0.94848   0.57429   0.25783 
C          C       0.43754   0.43011   0.22282 
C          C       0.00582   0.56429   0.23129 
C          C       0.57308   0.49821   0.22729 
C          C       0.48316   0.45451   0.22671 
C          C       0.50568   0.43420   0.20132 
C          C       0.50664   0.49719   0.25302 
C          C       0.54889   0.45519   0.20172 
C          C       0.55123   0.51889   0.25318 
C          C       0.61864   0.51829   0.22346 
N          N       0.08220   0.43685   0.25393 
N          N       0.64313   0.55648   0.25023 
O          O       0.09015   0.03897   0.20609 
C          C       0.17214   0.22163   0.25189 
O          O       0.57027   0.55984   0.27974 
C          C       0.15060   0.24362   0.24335 
O          O       0.00696   0.43485   0.29374 
C          C       0.95170   0.83895   0.24362 
C          C       0.75352   0.64093   0.23289 
C          C       0.90783   0.81629   0.23153 
C          C       0.75195   0.57607   0.26646 
C          C       0.97320   0.81694   0.25440 
C          C       0.71000   0.61962   0.23317 
C          C       0.88618   0.77276   0.23335 
C          C       0.70838   0.55442   0.26666 
C          C       0.95124   0.77342   0.25642 
C          C       0.68684   0.57596   0.24861 
C          C       0.90740   0.75068   0.24640 
C          C       0.90561   0.61900   0.25719 
C          C       0.17366   0.28974   0.24565 
C          C       0.34803   0.37699   0.26788 
C          C       0.17378   0.35170   0.24654 
C          C       0.34804   0.44152   0.23594 
C          C       0.23593   0.35226   0.25073 
C          C       0.37036   0.42054   0.25022 
C          C       0.88401   0.70455   0.24892 
C          C       0.15069   0.37436   0.24706 
C          C       0.04946   0.01983   0.23564 
C          C       0.88313   0.64227   0.25505 
C          C       0.17159   0.41776   0.26409 
C          C       0.02783   0.97525   0.23628 
C          C       0.82131   0.64235   0.24957 
C          C       0.10714   0.35278   0.23216 
C          C       0.98539   0.95167   0.26541 
C          C       0.28208   0.37571   0.25194 
C          C       0.15059   0.17814   0.24993 
C          C       0.96522   0.97410   0.29293 
C          C       0.96120   0.90606   0.27068 
C          C       0.10626   0.41753   0.24972 
C          C       0.98618   0.01730   0.29236 
N          N       0.97549   0.88273   0.24063 
C          C       0.77516   0.61948   0.24920 
C          C       0.02900   0.04159   0.26419 
N          N       0.08690   0.11167   0.23797 
C          C       0.10683   0.22080   0.23202 
O          O       0.06626   0.97502   0.20889 
C          C       0.10661   0.15536   0.24086 
C          C       0.30447   0.35503   0.26813 
C          C       0.04922   0.08712   0.26879 
C          C       0.08493   0.17726   0.23042 
C          C       0.30451   0.41927   0.23628 
V          V       0.53457   0.57994   0.27829 
O          O       0.53457   0.63244   0.27918 
V          V       0.11151   0.00529   0.23425 
V          V       0.96184   0.43327   0.29507 
O          O       0.91497   0.39038   0.29668 
H          H       0.03084   0.09990   0.29999 
H          H       0.16696   0.16244   0.25516 
H          H       0.20418   0.23766   0.25967 
H          H       0.05291   0.16130   0.22157 
H          H       0.09055   0.23657   0.22473 
H          H       0.09132   0.32082   0.21967 
H          H       0.20357   0.43400   0.27549 
H          H       0.16576   0.47119   0.27896 
H          H       0.05313   0.35759   0.22387 
H          H       0.12757   0.49322   0.19881 
H          H       0.12258   0.55461   0.18423 
H          H       0.08542   0.59123   0.18558 
H          H       0.28879   0.32307   0.28050 
H          H       0.36397   0.36098   0.28086 
H          H       0.36368   0.47351   0.22511 
H          H       0.28850   0.43524   0.22476 
H          H       0.42389   0.39874   0.19463 
H          H       0.48976   0.40242   0.18147 
H          H       0.56378   0.43831   0.18232 
H          H       0.63149   0.49978   0.19695 
H          H       0.69225   0.52248   0.28021 
H          H       0.76742   0.55959   0.27939 
H          H       0.76972   0.67289   0.22046 
H          H       0.69459   0.63619   0.22185 
H          H       0.85186   0.55966   0.23145 
H          H       0.88838   0.52121   0.23392 
H          H       0.96539   0.67179   0.28443 
H          H       0.00232   0.63370   0.28646 
H          H       0.96745   0.75760   0.26543 
H          H       0.89157   0.83203   0.22124 
H          H       0.85415   0.75681   0.22495 
H          H       0.00525   0.83283   0.26086 
H          H       0.92995   0.89238   0.30173 
O          O       0.16514   0.00841   0.23858 
H          H       0.02271   0.59591   0.22898 
H          H       0.93515   0.95394   0.29227 
H          H       0.97030   0.03294   0.29386 
C          C       0.88384   0.57538   0.74280 
C          C       0.94904   0.63981   0.77315 
C          C       0.02650   0.53975   0.73574 
C          C       0.00683   0.49739   0.76494 
C          C       0.06929   0.55950   0.70701 
C          C       0.02909   0.47541   0.76393 
C          C       0.09088   0.53823   0.70615 
C          C       0.07145   0.49543   0.73380 
O          O       0.48913   0.52030   0.77954 
O          O       0.96631   0.47501   0.79556 
N          N       0.96781   0.55021   0.76022 
N          N       0.41414   0.44460   0.75115 
C          C       0.09626   0.47504   0.72728 
N          N       0.21588   0.37400   0.74959 
N          N       0.15174   0.30958   0.74332 
N          N       0.21575   0.31014   0.75006 
N          N       0.84191   0.68446   0.74606 
N          N       0.90558   0.68441   0.75406 
N          N       0.84098   0.62030   0.75347 
C          C       0.14987   0.43924   0.76582 
C          C       0.08513   0.37392   0.73403 
C          C       0.90482   0.55322   0.74367 
C          C       0.97036   0.61793   0.77398 
C          C       0.94848   0.57429   0.75783 
C          C       0.43754   0.43011   0.72282 
C          C       0.00582   0.56429   0.73129 
C          C       0.57308   0.49821   0.72729 
C          C       0.48316   0.45451   0.72671 
C          C       0.50568   0.43420   0.70132 
C          C       0.50664   0.49719   0.75302 
C          C       0.54889   0.45519   0.70172 
C          C       0.55123   0.51889   0.75318 
C          C       0.61864   0.51829   0.72346 
N          N       0.08220   0.43685   0.75393 
N          N       0.64313   0.55648   0.75024 
O          O       0.09015   0.03897   0.70609 
C          C       0.17214   0.22163   0.75189 
O          O       0.57027   0.55984   0.77974 
C          C       0.15060   0.24362   0.74335 
O          O       0.00696   0.43485   0.79373 
C          C       0.95170   0.83895   0.74362 
C          C       0.75352   0.64093   0.73289 
C          C       0.90783   0.81629   0.73153 
C          C       0.75195   0.57607   0.76646 
C          C       0.97320   0.81694   0.75440 
C          C       0.71000   0.61962   0.73317 
C          C       0.88618   0.77276   0.73335 
C          C       0.70838   0.55442   0.76667 
C          C       0.95124   0.77342   0.75642 
C          C       0.68684   0.57596   0.74861 
C          C       0.90740   0.75068   0.74640 
C          C       0.90561   0.61900   0.75719 
C          C       0.17366   0.28974   0.74565 
C          C       0.34803   0.37699   0.76789 
C          C       0.17378   0.35170   0.74655 
C          C       0.34804   0.44152   0.73594 
C          C       0.23593   0.35226   0.75073 
C          C       0.37036   0.42054   0.75022 
C          C       0.88401   0.70455   0.74891 
C          C       0.15069   0.37436   0.74706 
C          C       0.04946   0.01983   0.73564 
C          C       0.88313   0.64227   0.75505 
C          C       0.17159   0.41776   0.76409 
C          C       0.02783   0.97525   0.73628 
C          C       0.82131   0.64235   0.74957 
C          C       0.10714   0.35278   0.73216 
C          C       0.98539   0.95167   0.76541 
C          C       0.28208   0.37571   0.75194 
C          C       0.15059   0.17814   0.74993 
C          C       0.96522   0.97410   0.79293 
C          C       0.96120   0.90606   0.77068 
C          C       0.10626   0.41753   0.74972 
C          C       0.98618   0.01730   0.79236 
N          N       0.97549   0.88273   0.74063 
C          C       0.77516   0.61948   0.74920 
C          C       0.02900   0.04159   0.76419 
N          N       0.08690   0.11167   0.73797 
C          C       0.10683   0.22080   0.73202 
O          O       0.06626   0.97502   0.70890 
C          C       0.10661   0.15536   0.74086 
C          C       0.30447   0.35503   0.76813 
C          C       0.04922   0.08712   0.76879 
C          C       0.08493   0.17726   0.73042 
C          C       0.30451   0.41927   0.73628 
V          V       0.53457   0.57994   0.77829 
O          O       0.53457   0.63244   0.77918 
V          V       0.11151   0.00529   0.73424 
V          V       0.96184   0.43327   0.79507 
O          O       0.91497   0.39038   0.79668 
H          H       0.03084   0.09990   0.79998 
H          H       0.16696   0.16244   0.75516 
H          H       0.20418   0.23766   0.75967 
H          H       0.05291   0.16130   0.72157 
H          H       0.09055   0.23657   0.72474 
H          H       0.09132   0.32082   0.71967 
H          H       0.20357   0.43400   0.77549 
H          H       0.16576   0.47119   0.77896 
H          H       0.05313   0.35759   0.72387 
H          H       0.12757   0.49322   0.69881 
H          H       0.12258   0.55461   0.68423 
H          H       0.08542   0.59123   0.68558 
H          H       0.28879   0.32307   0.78050 
H          H       0.36397   0.36098   0.78086 
H          H       0.36368   0.47351   0.72510 
H          H       0.28850   0.43524   0.72476 
H          H       0.42389   0.39874   0.69463 
H          H       0.48976   0.40242   0.68148 
H          H       0.56378   0.43831   0.68232 
H          H       0.63149   0.49978   0.69695 
H          H       0.69225   0.52248   0.78021 
H          H       0.76742   0.55959   0.77939 
H          H       0.76972   0.67289   0.72045 
H          H       0.69459   0.63619   0.72185 
H          H       0.85186   0.55966   0.73145 
H          H       0.88838   0.52121   0.73392 
H          H       0.96539   0.67179   0.78443 
H          H       0.00232   0.63370   0.78646 
H          H       0.96745   0.75760   0.76543 
H          H       0.89157   0.83203   0.72124 
H          H       0.85415   0.75681   0.72495 
H          H       0.00525   0.83283   0.76085 
H          H       0.92995   0.89238   0.80173 
O          O       0.16514   0.00841   0.73857 
H          H       0.02271   0.59591   0.72898 
H          H       0.93515   0.95394   0.79227 
H          H       0.97030   0.03294   0.79386 
