data_crystal

_cell_length_a    42.28870
_cell_length_b    42.28870
_cell_length_c    7.01160
_cell_angle_alpha 90.00000
_cell_angle_beta  90.00000
_cell_angle_gamma 120.00000

_space_group_name_Hall 'P 1'
_space_group_name_H-M_alt  'P 1'

loop_
_symmetry_equiv_pos_as_xyz
'x,y,z' 

loop_
_atom_site_label
_atom_site_type_symbol
_atom_site_fract_x
_atom_site_fract_y
_atom_site_fract_z
C          C       0.51751   0.50013   0.00000 
C          C       0.49987   0.01738   0.00000 
C          C       0.98262   0.48249   0.00000 
C          C       0.48249   0.49987   0.00000 
C          C       0.50013   0.98262   0.00000 
C          C       0.01738   0.51751   0.00000 
C          C       0.55122   0.53161   0.00000 
C          C       0.46839   0.01961   0.00000 
C          C       0.98039   0.44878   0.00000 
C          C       0.44878   0.46839   0.00000 
C          C       0.53161   0.98039   0.00000 
C          C       0.01961   0.55122   0.00000 
H          H       0.50231   0.55838   0.00000 
H          H       0.44162   0.94393   0.00000 
H          H       0.05607   0.49769   0.00000 
H          H       0.49769   0.44162   0.00000 
H          H       0.55838   0.05607   0.00000 
H          H       0.94393   0.50231   0.00000 
N          N       0.63027   0.32063   0.00000 
N          N       0.67937   0.30964   0.00000 
N          N       0.69036   0.36973   0.00000 
N          N       0.36973   0.67937   0.00000 
N          N       0.32063   0.69036   0.00000 
N          N       0.30964   0.63027   0.00000 
C          C       0.74320   0.36005   0.00000 
C          C       0.63995   0.38315   0.00000 
C          C       0.61685   0.25680   0.00000 
C          C       0.25680   0.63995   0.00000 
C          C       0.36005   0.61685   0.00000 
C          C       0.38315   0.74320   0.00000 
C          C       0.64279   0.29666   0.00000 
C          C       0.70334   0.34613   0.00000 
C          C       0.65387   0.35721   0.00000 
C          C       0.35721   0.70334   0.00000 
C          C       0.29666   0.65387   0.00000 
C          C       0.34613   0.64279   0.00000 
C          C       0.66427   0.42105   0.00000 
C          C       0.57895   0.24322   0.00000 
C          C       0.75678   0.33573   0.00000 
C          C       0.33573   0.57895   0.00000 
C          C       0.42105   0.75678   0.00000 
C          C       0.24322   0.66427   0.00000 
C          C       0.65111   0.44548   0.00000 
C          C       0.55452   0.20563   0.00000 
C          C       0.79437   0.34889   0.00000 
C          C       0.34889   0.55452   0.00000 
C          C       0.44548   0.79437   0.00000 
C          C       0.20563   0.65111   0.00000 
H          H       0.69351   0.43192   0.00000 
H          H       0.56808   0.26159   0.00000 
H          H       0.73841   0.30649   0.00000 
H          H       0.30649   0.56808   0.00000 
H          H       0.43192   0.73841   0.00000 
H          H       0.26159   0.69351   0.00000 
H          H       0.67026   0.47456   0.00000 
H          H       0.52544   0.19570   0.00000 
H          H       0.80430   0.32974   0.00000 
H          H       0.32974   0.52544   0.00000 
H          H       0.47456   0.80430   0.00000 
H          H       0.19570   0.67026   0.00000 
C          C       0.39782   0.62969   0.00000 
C          C       0.37031   0.76813   0.00000 
C          C       0.23187   0.60218   0.00000 
C          C       0.60218   0.37031   0.00000 
C          C       0.62969   0.23187   0.00000 
C          C       0.76813   0.39782   0.00000 
C          C       0.41092   0.60522   0.00000 
C          C       0.39478   0.80570   0.00000 
C          C       0.19430   0.58908   0.00000 
C          C       0.58908   0.39478   0.00000 
C          C       0.60522   0.19430   0.00000 
C          C       0.80570   0.41092   0.00000 
H          H       0.41733   0.65868   0.00000 
H          H       0.34132   0.75865   0.00000 
H          H       0.24135   0.58267   0.00000 
H          H       0.58267   0.34132   0.00000 
H          H       0.65868   0.24135   0.00000 
H          H       0.75865   0.41733   0.00000 
H          H       0.44013   0.61594   0.00000 
H          H       0.38406   0.82419   0.00000 
H          H       0.17581   0.55987   0.00000 
H          H       0.55987   0.38406   0.00000 
H          H       0.61594   0.17581   0.00000 
H          H       0.82419   0.44013   0.00000 
C          C       0.61356   0.43266   0.00000 
C          C       0.56734   0.18090   0.00000 
C          C       0.81910   0.38644   0.00000 
C          C       0.38644   0.56734   0.00000 
C          C       0.43266   0.81910   0.00000 
C          C       0.18090   0.61356   0.00000 
S          S       0.41280   0.47622   0.00000 
S          S       0.52378   0.93658   0.00000 
S          S       0.06342   0.58720   0.00000 
S          S       0.58720   0.52378   0.00000 
S          S       0.47622   0.06342   0.00000 
S          S       0.93658   0.41280   0.00000 
C          C       0.43279   0.55011   0.00000 
C          C       0.44989   0.88268   0.00000 
C          C       0.11732   0.56721   0.00000 
C          C       0.56721   0.44989   0.00000 
C          C       0.55011   0.11732   0.00000 
C          C       0.88268   0.43279   0.00000 
C          C       0.52058   0.46927   0.00000 
C          C       0.53073   0.05131   0.00000 
C          C       0.94869   0.47942   0.00000 
C          C       0.47942   0.53073   0.00000 
C          C       0.46927   0.94869   0.00000 
C          C       0.05131   0.52058   0.00000 
C          C       0.44347   0.52210   0.00000 
C          C       0.47790   0.92137   0.00000 
C          C       0.07863   0.55653   0.00000 
C          C       0.55653   0.47790   0.00000 
C          C       0.52210   0.07863   0.00000 
C          C       0.92137   0.44347   0.00000 
N          N       0.60128   0.45874   0.00000 
N          N       0.54126   0.14254   0.00000 
N          N       0.85746   0.39872   0.00000 
N          N       0.39872   0.54126   0.00000 
N          N       0.45874   0.85746   0.00000 
N          N       0.14254   0.60128   0.00000 
C          C       0.51751   0.50013   0.50000 
C          C       0.49987   0.01738   0.50000 
C          C       0.98262   0.48249   0.50000 
C          C       0.48249   0.49987   0.50000 
C          C       0.50013   0.98262   0.50000 
C          C       0.01738   0.51751   0.50000 
C          C       0.55122   0.53161   0.50000 
C          C       0.46839   0.01961   0.50000 
C          C       0.98039   0.44878   0.50000 
C          C       0.44878   0.46839   0.50000 
C          C       0.53161   0.98039   0.50000 
C          C       0.01961   0.55122   0.50000 
H          H       0.50231   0.55838   0.50000 
H          H       0.44162   0.94393   0.50000 
H          H       0.05607   0.49769   0.50000 
H          H       0.49769   0.44162   0.50000 
H          H       0.55838   0.05607   0.50000 
H          H       0.94393   0.50231   0.50000 
N          N       0.63027   0.32063   0.50000 
N          N       0.67937   0.30964   0.50000 
N          N       0.69036   0.36973   0.50000 
N          N       0.36973   0.67937   0.50000 
N          N       0.32063   0.69036   0.50000 
N          N       0.30964   0.63027   0.50000 
C          C       0.74320   0.36005   0.50000 
C          C       0.63995   0.38315   0.50000 
C          C       0.61685   0.25680   0.50000 
C          C       0.25680   0.63995   0.50000 
C          C       0.36005   0.61685   0.50000 
C          C       0.38315   0.74320   0.50000 
C          C       0.64279   0.29666   0.50000 
C          C       0.70334   0.34613   0.50000 
C          C       0.65387   0.35721   0.50000 
C          C       0.35721   0.70334   0.50000 
C          C       0.29666   0.65387   0.50000 
C          C       0.34613   0.64279   0.50000 
C          C       0.66427   0.42105   0.50000 
C          C       0.57895   0.24322   0.50000 
C          C       0.75678   0.33573   0.50000 
C          C       0.33573   0.57895   0.50000 
C          C       0.42105   0.75678   0.50000 
C          C       0.24322   0.66427   0.50000 
C          C       0.65111   0.44548   0.50000 
C          C       0.55452   0.20563   0.50000 
C          C       0.79437   0.34889   0.50000 
C          C       0.34889   0.55452   0.50000 
C          C       0.44548   0.79437   0.50000 
C          C       0.20563   0.65111   0.50000 
H          H       0.69351   0.43192   0.50000 
H          H       0.56808   0.26159   0.50000 
H          H       0.73841   0.30649   0.50000 
H          H       0.30649   0.56808   0.50000 
H          H       0.43192   0.73841   0.50000 
H          H       0.26159   0.69351   0.50000 
H          H       0.67026   0.47456   0.50000 
H          H       0.52544   0.19570   0.50000 
H          H       0.80430   0.32974   0.50000 
H          H       0.32974   0.52544   0.50000 
H          H       0.47456   0.80430   0.50000 
H          H       0.19570   0.67026   0.50000 
C          C       0.39782   0.62969   0.50000 
C          C       0.37031   0.76813   0.50000 
C          C       0.23187   0.60218   0.50000 
C          C       0.60218   0.37031   0.50000 
C          C       0.62969   0.23187   0.50000 
C          C       0.76813   0.39782   0.50000 
C          C       0.41092   0.60522   0.50000 
C          C       0.39478   0.80570   0.50000 
C          C       0.19430   0.58908   0.50000 
C          C       0.58908   0.39478   0.50000 
C          C       0.60522   0.19430   0.50000 
C          C       0.80570   0.41092   0.50000 
H          H       0.41733   0.65868   0.50000 
H          H       0.34132   0.75865   0.50000 
H          H       0.24135   0.58267   0.50000 
H          H       0.58267   0.34132   0.50000 
H          H       0.65868   0.24135   0.50000 
H          H       0.75865   0.41733   0.50000 
H          H       0.44013   0.61594   0.50000 
H          H       0.38406   0.82419   0.50000 
H          H       0.17581   0.55987   0.50000 
H          H       0.55987   0.38406   0.50000 
H          H       0.61594   0.17581   0.50000 
H          H       0.82419   0.44013   0.50000 
C          C       0.61356   0.43266   0.50000 
C          C       0.56734   0.18090   0.50000 
C          C       0.81910   0.38644   0.50000 
C          C       0.38644   0.56734   0.50000 
C          C       0.43266   0.81910   0.50000 
C          C       0.18090   0.61356   0.50000 
S          S       0.41280   0.47622   0.50000 
S          S       0.52378   0.93658   0.50000 
S          S       0.06342   0.58720   0.50000 
S          S       0.58720   0.52378   0.50000 
S          S       0.47622   0.06342   0.50000 
S          S       0.93658   0.41280   0.50000 
C          C       0.43279   0.55011   0.50000 
C          C       0.44989   0.88268   0.50000 
C          C       0.11732   0.56721   0.50000 
C          C       0.56721   0.44989   0.50000 
C          C       0.55011   0.11732   0.50000 
C          C       0.88268   0.43279   0.50000 
C          C       0.52058   0.46927   0.50000 
C          C       0.53073   0.05131   0.50000 
C          C       0.94869   0.47942   0.50000 
C          C       0.47942   0.53073   0.50000 
C          C       0.46927   0.94869   0.50000 
C          C       0.05131   0.52058   0.50000 
C          C       0.44347   0.52210   0.50000 
C          C       0.47790   0.92137   0.50000 
C          C       0.07863   0.55653   0.50000 
C          C       0.55653   0.47790   0.50000 
C          C       0.52210   0.07863   0.50000 
C          C       0.92137   0.44347   0.50000 
N          N       0.60128   0.45874   0.50000 
N          N       0.54126   0.14254   0.50000 
N          N       0.85746   0.39872   0.50000 
N          N       0.39872   0.54126   0.50000 
N          N       0.45874   0.85746   0.50000 
N          N       0.14254   0.60128   0.50000 
