data_crystal

_cell_length_a    40.01270
_cell_length_b    40.01270
_cell_length_c    7.01160
_cell_angle_alpha 90.00000
_cell_angle_beta  90.00000
_cell_angle_gamma 120.00000

_space_group_name_Hall 'P 1'
_space_group_name_H-M_alt  'P 1'

loop_
_symmetry_equiv_pos_as_xyz
'x,y,z' 

loop_
_atom_site_label
_atom_site_type_symbol
_atom_site_fract_x
_atom_site_fract_y
_atom_site_fract_z
H          H       0.53366   0.57786   0.00000 
H          H       0.42214   0.95580   0.00000 
H          H       0.04420   0.46634   0.00000 
H          H       0.46634   0.42214   0.00000 
H          H       0.57786   0.04420   0.00000 
H          H       0.95580   0.53366   0.00000 
N          N       0.62775   0.31658   0.00000 
N          N       0.68342   0.31117   0.00000 
N          N       0.68883   0.37225   0.00000 
N          N       0.37225   0.68342   0.00000 
N          N       0.31658   0.68883   0.00000 
N          N       0.31117   0.62775   0.00000 
C          C       0.74851   0.36856   0.00000 
C          C       0.63144   0.37995   0.00000 
C          C       0.62005   0.25149   0.00000 
C          C       0.25149   0.63144   0.00000 
C          C       0.36856   0.62005   0.00000 
C          C       0.37995   0.74851   0.00000 
C          C       0.64433   0.29411   0.00000 
C          C       0.70589   0.35022   0.00000 
C          C       0.64978   0.35567   0.00000 
C          C       0.35567   0.70589   0.00000 
C          C       0.29411   0.64978   0.00000 
C          C       0.35022   0.64433   0.00000 
C          C       0.65414   0.42044   0.00000 
C          C       0.57956   0.23370   0.00000 
C          C       0.76630   0.34586   0.00000 
C          C       0.34586   0.57956   0.00000 
C          C       0.42044   0.76630   0.00000 
C          C       0.23370   0.65414   0.00000 
C          C       0.63681   0.44329   0.00000 
C          C       0.55671   0.19352   0.00000 
C          C       0.80648   0.36319   0.00000 
C          C       0.36319   0.55671   0.00000 
C          C       0.44329   0.80648   0.00000 
C          C       0.19352   0.63681   0.00000 
H          H       0.68534   0.43455   0.00000 
H          H       0.56545   0.25079   0.00000 
H          H       0.74921   0.31466   0.00000 
H          H       0.31466   0.56545   0.00000 
H          H       0.43455   0.74921   0.00000 
H          H       0.25079   0.68534   0.00000 
H          H       0.65476   0.47442   0.00000 
H          H       0.52558   0.18034   0.00000 
H          H       0.81966   0.34524   0.00000 
H          H       0.34524   0.52558   0.00000 
H          H       0.47442   0.81966   0.00000 
H          H       0.18034   0.65476   0.00000 
C          C       0.40898   0.63709   0.00000 
C          C       0.36291   0.77189   0.00000 
C          C       0.22811   0.59102   0.00000 
C          C       0.59102   0.36291   0.00000 
C          C       0.63709   0.22811   0.00000 
C          C       0.77189   0.40898   0.00000 
C          C       0.42626   0.61418   0.00000 
C          C       0.38582   0.81208   0.00000 
C          C       0.18792   0.57374   0.00000 
C          C       0.57374   0.38582   0.00000 
C          C       0.61418   0.18792   0.00000 
C          C       0.81208   0.42626   0.00000 
H          H       0.42735   0.66816   0.00000 
H          H       0.33184   0.75919   0.00000 
H          H       0.24081   0.57265   0.00000 
H          H       0.57265   0.33184   0.00000 
H          H       0.66816   0.24081   0.00000 
H          H       0.75919   0.42735   0.00000 
H          H       0.45744   0.62815   0.00000 
H          H       0.37185   0.82929   0.00000 
H          H       0.17071   0.54256   0.00000 
H          H       0.54256   0.37185   0.00000 
H          H       0.62815   0.17071   0.00000 
H          H       0.82929   0.45744   0.00000 
C          C       0.59662   0.42631   0.00000 
C          C       0.57369   0.17031   0.00000 
C          C       0.82969   0.40338   0.00000 
C          C       0.40338   0.57369   0.00000 
C          C       0.42631   0.82969   0.00000 
C          C       0.17031   0.59662   0.00000 
S          S       0.44219   0.48532   0.00000 
S          S       0.51468   0.95687   0.00000 
S          S       0.04313   0.55781   0.00000 
S          S       0.55781   0.51468   0.00000 
S          S       0.48532   0.04313   0.00000 
S          S       0.95687   0.44219   0.00000 
C          C       0.45669   0.56174   0.00000 
C          C       0.43826   0.89495   0.00000 
C          C       0.10505   0.54331   0.00000 
C          C       0.54331   0.43826   0.00000 
C          C       0.56174   0.10505   0.00000 
C          C       0.89495   0.45669   0.00000 
C          C       0.48907   0.45206   0.00000 
C          C       0.54794   0.03701   0.00000 
C          C       0.96299   0.51093   0.00000 
C          C       0.51093   0.54794   0.00000 
C          C       0.45206   0.96299   0.00000 
C          C       0.03701   0.48907   0.00000 
C          C       0.48346   0.48300   0.00000 
C          C       0.51700   0.00046   0.00000 
C          C       0.99954   0.51654   0.00000 
C          C       0.51654   0.51700   0.00000 
C          C       0.48300   0.99954   0.00000 
C          C       0.00046   0.48346   0.00000 
C          C       0.47164   0.53501   0.00000 
C          C       0.46499   0.93663   0.00000 
C          C       0.06337   0.52836   0.00000 
C          C       0.52836   0.46499   0.00000 
C          C       0.53501   0.06337   0.00000 
C          C       0.93663   0.47164   0.00000 
N          N       0.58008   0.45090   0.00000 
N          N       0.54910   0.12918   0.00000 
N          N       0.87082   0.41992   0.00000 
N          N       0.41992   0.54910   0.00000 
N          N       0.45090   0.87082   0.00000 
N          N       0.12918   0.58008   0.00000 
H          H       0.53366   0.57786   0.50000 
H          H       0.42214   0.95580   0.50000 
H          H       0.04420   0.46634   0.50000 
H          H       0.46634   0.42214   0.50000 
H          H       0.57786   0.04420   0.50000 
H          H       0.95580   0.53366   0.50000 
N          N       0.62775   0.31658   0.50000 
N          N       0.68342   0.31117   0.50000 
N          N       0.68883   0.37225   0.50000 
N          N       0.37225   0.68342   0.50000 
N          N       0.31658   0.68883   0.50000 
N          N       0.31117   0.62775   0.50000 
C          C       0.74851   0.36856   0.50000 
C          C       0.63144   0.37995   0.50000 
C          C       0.62005   0.25149   0.50000 
C          C       0.25149   0.63144   0.50000 
C          C       0.36856   0.62005   0.50000 
C          C       0.37995   0.74851   0.50000 
C          C       0.64433   0.29411   0.50000 
C          C       0.70589   0.35022   0.50000 
C          C       0.64978   0.35567   0.50000 
C          C       0.35567   0.70589   0.50000 
C          C       0.29411   0.64978   0.50000 
C          C       0.35022   0.64433   0.50000 
C          C       0.65414   0.42044   0.50000 
C          C       0.57956   0.23370   0.50000 
C          C       0.76630   0.34586   0.50000 
C          C       0.34586   0.57956   0.50000 
C          C       0.42044   0.76630   0.50000 
C          C       0.23370   0.65414   0.50000 
C          C       0.63681   0.44329   0.50000 
C          C       0.55671   0.19352   0.50000 
C          C       0.80648   0.36319   0.50000 
C          C       0.36319   0.55671   0.50000 
C          C       0.44329   0.80648   0.50000 
C          C       0.19352   0.63681   0.50000 
H          H       0.68534   0.43455   0.50000 
H          H       0.56545   0.25079   0.50000 
H          H       0.74921   0.31466   0.50000 
H          H       0.31466   0.56545   0.50000 
H          H       0.43455   0.74921   0.50000 
H          H       0.25079   0.68534   0.50000 
H          H       0.65476   0.47442   0.50000 
H          H       0.52558   0.18034   0.50000 
H          H       0.81966   0.34524   0.50000 
H          H       0.34524   0.52558   0.50000 
H          H       0.47442   0.81966   0.50000 
H          H       0.18034   0.65476   0.50000 
C          C       0.40898   0.63709   0.50000 
C          C       0.36291   0.77189   0.50000 
C          C       0.22811   0.59102   0.50000 
C          C       0.59102   0.36291   0.50000 
C          C       0.63709   0.22811   0.50000 
C          C       0.77189   0.40898   0.50000 
C          C       0.42626   0.61418   0.50000 
C          C       0.38582   0.81208   0.50000 
C          C       0.18792   0.57374   0.50000 
C          C       0.57374   0.38582   0.50000 
C          C       0.61418   0.18792   0.50000 
C          C       0.81208   0.42626   0.50000 
H          H       0.42735   0.66816   0.50000 
H          H       0.33184   0.75919   0.50000 
H          H       0.24081   0.57265   0.50000 
H          H       0.57265   0.33184   0.50000 
H          H       0.66816   0.24081   0.50000 
H          H       0.75919   0.42735   0.50000 
H          H       0.45744   0.62815   0.50000 
H          H       0.37185   0.82929   0.50000 
H          H       0.17071   0.54256   0.50000 
H          H       0.54256   0.37185   0.50000 
H          H       0.62815   0.17071   0.50000 
H          H       0.82929   0.45744   0.50000 
C          C       0.59662   0.42631   0.50000 
C          C       0.57369   0.17031   0.50000 
C          C       0.82969   0.40338   0.50000 
C          C       0.40338   0.57369   0.50000 
C          C       0.42631   0.82969   0.50000 
C          C       0.17031   0.59662   0.50000 
S          S       0.44219   0.48532   0.50000 
S          S       0.51468   0.95687   0.50000 
S          S       0.04313   0.55781   0.50000 
S          S       0.55781   0.51468   0.50000 
S          S       0.48532   0.04313   0.50000 
S          S       0.95687   0.44219   0.50000 
C          C       0.45669   0.56174   0.50000 
C          C       0.43826   0.89495   0.50000 
C          C       0.10505   0.54331   0.50000 
C          C       0.54331   0.43826   0.50000 
C          C       0.56174   0.10505   0.50000 
C          C       0.89495   0.45669   0.50000 
C          C       0.48907   0.45206   0.50000 
C          C       0.54794   0.03701   0.50000 
C          C       0.96299   0.51093   0.50000 
C          C       0.51093   0.54794   0.50000 
C          C       0.45206   0.96299   0.50000 
C          C       0.03701   0.48907   0.50000 
C          C       0.48346   0.48300   0.50000 
C          C       0.51700   0.00046   0.50000 
C          C       0.99954   0.51654   0.50000 
C          C       0.51654   0.51700   0.50000 
C          C       0.48300   0.99954   0.50000 
C          C       0.00046   0.48346   0.50000 
C          C       0.47164   0.53501   0.50000 
C          C       0.46499   0.93663   0.50000 
C          C       0.06337   0.52836   0.50000 
C          C       0.52836   0.46499   0.50000 
C          C       0.53501   0.06337   0.50000 
C          C       0.93663   0.47164   0.50000 
N          N       0.58008   0.45090   0.50000 
N          N       0.54910   0.12918   0.50000 
N          N       0.87082   0.41992   0.50000 
N          N       0.41992   0.54910   0.50000 
N          N       0.45090   0.87082   0.50000 
N          N       0.12918   0.58008   0.50000 
