data_crystal

_cell_length_a    26.19000
_cell_length_b    25.86000
_cell_length_c    8.04000
_cell_angle_alpha 86.34000
_cell_angle_beta  86.16000
_cell_angle_gamma 119.87000

_space_group_name_Hall 'P 1'
_space_group_name_H-M_alt  'P 1'

loop_
_symmetry_equiv_pos_as_xyz
'x,y,z'

loop_
_atom_site_label
_atom_site_type_symbol
_atom_site_fract_x
_atom_site_fract_y
_atom_site_fract_z
C          C       0.13402   0.06389   0.23496
C          C       0.16911   0.04421   0.30951
C          C       0.23108   0.07689   0.27261
C          C       0.25921   0.12955   0.16006
C          C       0.22429   0.15027   0.08913
C          C       0.16226   0.11758   0.12490
C          C       0.06779   0.02866   0.27618
N          N       0.32281   0.16425   0.12460
C          C       0.35783   0.14276   0.14599
C          C       0.42274   0.18181   0.13078
C          C       0.45158   0.24047   0.04903
C          C       0.51303   0.27709   0.04478
C          C       0.54662   0.25613   0.12481
C          C       0.51741   0.19701   0.20428
C          C       0.45629   0.16017   0.20572
C          C       0.61135   0.29631   0.13071
C          C       0.65018   0.27357   0.12624
C          C       0.03858   0.06098   0.30430
C          C       0.94682   0.06940   0.32329
C          C       0.97226   0.12413   0.21899
C          C       0.94266   0.15640   0.20442
C          C       0.88621   0.13441   0.29292
C          C       0.86138   0.08065   0.39963
C          C       0.89124   0.04856   0.41544
C          C       0.97663   0.03286   0.32582
N          N       0.85184   0.16364   0.27500
C          C       0.86682   0.21277   0.17936
C          C       0.82627   0.23702   0.17016
C          C       0.76898   0.20674   0.25739
C          C       0.73153   0.23059   0.24562
C          C       0.75052   0.28528   0.14677
C          C       0.80780   0.31541   0.05946
C          C       0.84517   0.29146   0.07092
C          C       0.71088   0.31102   0.13793
C          C       0.73320   0.37270   0.14572
C          C       0.94327   0.97013   0.33461
C          C       0.93009   0.86826   0.30668
C          C       0.87952   0.84627   0.22270
C          C       0.84398   0.78438   0.21392
C          C       0.85938   0.74409   0.28916
C          C       0.90881   0.76554   0.37962
C          C       0.94285   0.82754   0.39015
C          C       0.97022   0.93533   0.31135
N          N       0.82939   0.68102   0.27226
C          C       0.78451   0.65048   0.19036
C          C       0.76207   0.58584   0.18168
C          C       0.79091   0.55740   0.25089
C          C       0.76916   0.49625   0.24197
C          C       0.71848   0.46203   0.16146
C          C       0.69018   0.49106   0.09089
C          C       0.71153   0.55206   0.10192
C          C       0.69518   0.39663   0.15053
C          C       0.63419   0.35748   0.14671
C          C       0.03230   0.96618   0.27909
C          C       0.04013   0.72105   0.40858
C          C       0.09767   0.74453   0.44963
N          N       0.12341   0.80399   0.41536
C          C       0.08423   0.81527   0.35502
N          N       0.03185   0.76579   0.34347
C          C       0.10957   0.87696   0.27307
C          C       0.17483   0.90607   0.31493
C          C       0.18315   0.85407   0.38786
C          C       0.06238   0.93056   0.21379
O          O       0.08016   0.90553   0.34323
H          H       0.14930   0.00546   0.39206
H          H       0.25632   0.06195   0.32916
H          H       0.24432   0.18985   0.01000
H          H       0.13711   0.13300   0.07011
H          H       0.33960   0.09707   0.17439
H          H       0.42741   0.25665   0.49189
H          H       0.53398   0.31989   0.48241
H          H       0.54137   0.18071   0.26207
H          H       0.43559   0.11659   0.26247
H          H       0.63385   0.22868   0.11420
H          H       0.01338   0.14066   0.15229
H          H       0.96231   0.19663   0.12829
H          H       0.82052   0.06447   0.46752
H          H       0.87230   0.00924   0.49546
H          H       0.90773   0.23523   0.10863
H          H       0.75443   0.16665   0.33063
H          H       0.68953   0.20783   0.31011
H          H       0.82242   0.35553   0.48629
H          H       0.88706   0.31404   0.00576
H          H       0.77810   0.40087   0.14794
H          H       0.86823   0.87566   0.16682
H          H       0.80655   0.76840   0.15229
H          H       0.91993   0.73628   0.43731
H          H       0.97803   0.84340   0.46098
H          H       0.76456   0.67123   0.13151
H          H       0.82849   0.58192   0.30880
H          H       0.79049   0.47595   0.29500
H          H       0.65320   0.46692   0.03027
H          H       0.68987   0.57233   0.05088
H          H       0.60563   0.37406   0.15585
H          H       0.00825   0.67609   0.42513
H          H       0.11665   0.72086   0.49695
H          H       0.10560   0.88002   0.14169
H          H       0.20046   0.95345   0.37056
H          H       0.21566   0.86980   0.48147
H          H       0.06427   0.10237   0.29020
H          H       0.89848   0.95097   0.34832
H          H       0.07646   0.93267   0.10123
C          C       0.13402   0.06389   0.73496
C          C       0.16911   0.04421   0.80951
C          C       0.23108   0.07689   0.77262
C          C       0.25921   0.12955   0.66006
C          C       0.22429   0.15027   0.58913
C          C       0.16226   0.11758   0.62490
C          C       0.06779   0.02866   0.77618
N          N       0.32281   0.16425   0.62460
C          C       0.35783   0.14276   0.64599
C          C       0.42274   0.18181   0.63078
C          C       0.45158   0.24047   0.54903
C          C       0.51303   0.27709   0.54478
C          C       0.54662   0.25613   0.62481
C          C       0.51741   0.19701   0.70428
C          C       0.45629   0.16017   0.70571
C          C       0.61135   0.29631   0.63071
C          C       0.65018   0.27357   0.62625
C          C       0.03858   0.06098   0.80431
C          C       0.94682   0.06940   0.82329
C          C       0.97226   0.12413   0.71899
C          C       0.94266   0.15640   0.70443
C          C       0.88621   0.13441   0.79292
C          C       0.86138   0.08065   0.89963
C          C       0.89124   0.04856   0.91544
C          C       0.97663   0.03286   0.82582
N          N       0.85184   0.16364   0.77501
C          C       0.86682   0.21277   0.67936
C          C       0.82627   0.23702   0.67016
C          C       0.76898   0.20674   0.75740
C          C       0.73153   0.23059   0.74562
C          C       0.75052   0.28528   0.64677
C          C       0.80780   0.31541   0.55946
C          C       0.84517   0.29146   0.57092
C          C       0.71088   0.31102   0.63793
C          C       0.73320   0.37270   0.64572
C          C       0.94327   0.97013   0.83461
C          C       0.93009   0.86826   0.80668
C          C       0.87952   0.84627   0.72270
C          C       0.84398   0.78438   0.71392
C          C       0.85938   0.74409   0.78916
C          C       0.90881   0.76554   0.87962
C          C       0.94285   0.82754   0.89015
C          C       0.97022   0.93533   0.81135
N          N       0.82939   0.68102   0.77226
C          C       0.78451   0.65048   0.69036
C          C       0.76207   0.58584   0.68168
C          C       0.79091   0.55740   0.75089
C          C       0.76916   0.49625   0.74197
C          C       0.71848   0.46203   0.66146
C          C       0.69018   0.49106   0.59089
C          C       0.71153   0.55206   0.60191
C          C       0.69518   0.39663   0.65053
C          C       0.63419   0.35748   0.64671
C          C       0.03230   0.96618   0.77909
C          C       0.04013   0.72105   0.90858
C          C       0.09767   0.74453   0.94963
N          N       0.12341   0.80399   0.91536
C          C       0.08423   0.81527   0.85502
N          N       0.03185   0.76579   0.84348
C          C       0.10957   0.87696   0.77307
C          C       0.17483   0.90607   0.81493
C          C       0.18315   0.85407   0.88786
C          C       0.06238   0.93056   0.71379
O          O       0.08016   0.90553   0.84323
H          H       0.14930   0.00546   0.89206
H          H       0.25632   0.06195   0.82915
H          H       0.24432   0.18985   0.51000
H          H       0.13711   0.13300   0.57011
H          H       0.33960   0.09707   0.67440
H          H       0.42741   0.25665   0.99189
H          H       0.53398   0.31989   0.98241
H          H       0.54137   0.18071   0.76207
H          H       0.43559   0.11659   0.76247
H          H       0.63385   0.22868   0.61420
H          H       0.01338   0.14066   0.65229
H          H       0.96231   0.19663   0.62829
H          H       0.82052   0.06447   0.96752
H          H       0.87230   0.00924   0.99546
H          H       0.90773   0.23523   0.60863
H          H       0.75443   0.16665   0.83063
H          H       0.68953   0.20783   0.81011
H          H       0.82242   0.35553   0.98629
H          H       0.88706   0.31404   0.50576
H          H       0.77810   0.40087   0.64794
H          H       0.86823   0.87566   0.66682
H          H       0.80655   0.76840   0.65229
H          H       0.91993   0.73628   0.93731
H          H       0.97803   0.84340   0.96098
H          H       0.76456   0.67123   0.63151
H          H       0.82849   0.58192   0.80880
H          H       0.79049   0.47595   0.79500
H          H       0.65320   0.46692   0.53027
H          H       0.68987   0.57233   0.55088
H          H       0.60563   0.37406   0.65585
H          H       0.00825   0.67609   0.92513
H          H       0.11665   0.72086   0.99695
H          H       0.10560   0.88002   0.64170
H          H       0.20143   0.94889   0.86096
H          H       0.21813   0.88010   0.96364
H          H       0.06427   0.10237   0.79020
H          H       0.89848   0.95097   0.84832
H          H       0.07646   0.93267   0.60123
H          H       0.19858   0.90500   0.69591
H          H       0.20522   0.84328   0.78805
H          H       0.19078   0.90874   0.21285
H          H       0.20636   0.85065   0.28706
