data_crystal

_cell_length_a    26.16000
_cell_length_b    25.86000
_cell_length_c    8.02000
_cell_angle_alpha 86.41000
_cell_angle_beta  86.14000
_cell_angle_gamma 119.96000

_space_group_name_Hall 'P 1'
_space_group_name_H-M_alt  'P 1'

loop_
_symmetry_equiv_pos_as_xyz
'x,y,z' 

loop_
_atom_site_label
_atom_site_type_symbol
_atom_site_fract_x
_atom_site_fract_y
_atom_site_fract_z
C          C       0.09440   0.04003   0.21353 
C          C       0.12928   0.02361   0.30221 
C          C       0.19152   0.06082   0.27978 
C          C       0.21873   0.11520   0.17507 
C          C       0.18325   0.13308   0.09425 
C          C       0.12142   0.09540   0.11189 
C          C       0.02899   0.00003   0.23497 
C          C       0.28362   0.15426   0.15801 
N          N       0.31689   0.13131   0.18627 
C          C       0.37959   0.16561   0.19310 
C          C       0.40504   0.21937   0.26738 
C          C       0.46598   0.24958   0.28764 
C          C       0.50178   0.22674   0.23105 
C          C       0.47590   0.17296   0.15526 
C          C       0.41512   0.14222   0.13934 
C          C       0.56612   0.25920   0.25349 
C          C       0.59697   0.22821   0.27974 
C          C       0.99398   0.02475   0.28235 
C          C       0.89535   0.01798   0.33726 
C          C       0.91223   0.07564   0.26238 
C          C       0.87573   0.09997   0.29085 
C          C       0.82154   0.06714   0.39498 
C          C       0.80528   0.01019   0.47305 
C          C       0.84172   0.98573   0.44418 
C          C       0.93213   0.99050   0.29733 
C          C       0.78090   0.09081   0.41871 
N          N       0.79260   0.14039   0.33233 
C          C       0.75731   0.16868   0.33293 
C          C       0.70005   0.14254   0.42118 
C          C       0.66755   0.17205   0.41198 
C          C       0.69161   0.22792   0.31481 
C          C       0.74865   0.25359   0.22701 
C          C       0.78170   0.22457   0.23609 
C          C       0.65763   0.25954   0.30158 
C          C       0.68675   0.32199   0.30431 
C          C       0.90506   0.93038   0.26672 
C          C       0.90315   0.83724   0.19810 
C          C       0.84817   0.79777   0.29018 
C          C       0.81905   0.73625   0.27365 
C          C       0.84559   0.71320   0.16676 
C          C       0.89932   0.75286   0.06943 
C          C       0.92628   0.81428   0.08045 
C          C       0.93821   0.90283   0.22448 
C          C       0.81878   0.64849   0.15457 
N          N       0.77340   0.60949   0.25823 
C          C       0.74586   0.54547   0.26246 
C          C       0.77457   0.51760   0.18683 
C          C       0.74571   0.45520   0.19303 
C          C       0.68809   0.41949   0.27633 
C          C       0.66015   0.44729   0.35554 
C          C       0.68903   0.50975   0.34909 
C          C       0.65682   0.35348   0.27806 
C          C       0.59711   0.32203   0.24955 
C          C       0.99981   0.93929   0.20841 
C          C       0.15206   0.82216   0.25673 
N          N       0.09147   0.81192   0.26682 
C          C       0.09548   0.86499   0.17667 
C          C       0.15745   0.91678   0.18992 
C          C       0.19505   0.88762   0.18889 
O          O       0.03950   0.91797   0.14247 
C          C       0.04560   0.87522   0.24903 
H          H       0.10956   0.98451   0.38351 
H          H       0.21740   0.04785   0.34127 
H          H       0.20272   0.17406   0.02166 
H          H       0.09557   0.10833   0.05005 
H          H       0.30269   0.19979   0.12368 
H          H       0.37908   0.23688   0.30734 
H          H       0.48432   0.28873   0.34447 
H          H       0.50200   0.15611   0.11114 
H          H       0.39636   0.10203   0.08762 
H          H       0.57481   0.18204   0.28297 
H          H       0.95191   0.10019   0.18576 
H          H       0.88861   0.14237   0.23508 
H          H       0.74321   0.06797   0.00391 
H          H       0.68204   0.10152   0.49278 
H          H       0.62567   0.15266   0.47694 
H          H       0.76651   0.29445   0.15469 
H          H       0.82373   0.24419   0.17194 
H          H       0.73076   0.34498   0.32593 
H          H       0.85932   0.90536   0.27534 
H          H       0.82881   0.81418   0.37133 
H          H       0.77797   0.70777   0.34020 
H          H       0.91907   0.73658   0.48917 
H          H       0.96401   0.84345   0.00047 
H          H       0.83630   0.63384   0.06220 
H          H       0.81716   0.54349   0.12657 
H          H       0.76686   0.43518   0.13601 
H          H       0.61804   0.42138   0.41885 
H          H       0.66829   0.52972   0.40868 
H          H       0.57546   0.34538   0.22521 
H          H       0.08920   0.86005   0.04691 
H          H       0.00456   0.83335   0.26363 
H          H       0.05681   0.89269   0.36707 
H          H       0.16167   0.81311   0.37913 
H          H       0.15647   0.79304   0.17531 
H          H       0.06472   0.77449   0.21174 
H          H       0.22959   0.90830   0.26823 
H          H       0.21647   0.89200   0.06610 
H          H       0.15878   0.93645   0.30418 
H          H       0.17238   0.95250   0.09068 
H          H       0.76504   0.98500   0.04676 
H          H       0.01426   0.06528   0.26971 
H          H       0.82844   0.94603   0.45511 
C          C       0.09440   0.04003   0.71353 
C          C       0.12928   0.02361   0.80221 
C          C       0.19152   0.06082   0.77978 
C          C       0.21873   0.11520   0.67507 
C          C       0.18325   0.13308   0.59425 
C          C       0.12142   0.09540   0.61190 
C          C       0.02899   0.00003   0.73496 
C          C       0.28362   0.15426   0.65801 
N          N       0.31689   0.13131   0.68627 
C          C       0.37959   0.16561   0.69310 
C          C       0.40504   0.21937   0.76738 
C          C       0.46598   0.24958   0.78764 
C          C       0.50178   0.22674   0.73105 
C          C       0.47590   0.17296   0.65526 
C          C       0.41512   0.14222   0.63934 
C          C       0.56612   0.25920   0.75349 
C          C       0.59697   0.22821   0.77974 
C          C       0.99398   0.02475   0.78235 
C          C       0.89535   0.01798   0.83726 
C          C       0.91223   0.07564   0.76238 
C          C       0.87573   0.09997   0.79085 
C          C       0.82154   0.06714   0.89498 
C          C       0.80528   0.01019   0.97305 
C          C       0.84172   0.98573   0.94418 
C          C       0.93213   0.99050   0.79733 
C          C       0.78090   0.09081   0.91871 
N          N       0.79260   0.14039   0.83234 
C          C       0.75731   0.16868   0.83293 
C          C       0.70005   0.14254   0.92118 
C          C       0.66755   0.17205   0.91197 
C          C       0.69161   0.22792   0.81481 
C          C       0.74865   0.25359   0.72701 
C          C       0.78170   0.22457   0.73609 
C          C       0.65763   0.25954   0.80158 
C          C       0.68675   0.32199   0.80431 
C          C       0.90506   0.93038   0.76672 
C          C       0.90315   0.83724   0.69810 
C          C       0.84817   0.79777   0.79017 
C          C       0.81905   0.73625   0.77365 
C          C       0.84559   0.71320   0.66677 
C          C       0.89932   0.75286   0.56944 
C          C       0.92628   0.81428   0.58045 
C          C       0.93821   0.90283   0.72448 
C          C       0.81878   0.64849   0.65457 
N          N       0.77340   0.60949   0.75823 
C          C       0.74586   0.54547   0.76246 
C          C       0.77457   0.51760   0.68683 
C          C       0.74571   0.45520   0.69303 
C          C       0.68809   0.41949   0.77633 
C          C       0.66015   0.44729   0.85555 
C          C       0.68903   0.50975   0.84909 
C          C       0.65682   0.35348   0.77806 
C          C       0.59711   0.32203   0.74955 
C          C       0.99981   0.93929   0.70841 
C          C       0.15206   0.82216   0.75673 
N          N       0.09147   0.81192   0.76682 
C          C       0.09548   0.86499   0.67667 
C          C       0.15745   0.91678   0.68992 
C          C       0.19505   0.88762   0.68889 
O          O       0.03950   0.91797   0.64247 
C          C       0.04560   0.87522   0.74903 
H          H       0.10956   0.98451   0.88352 
H          H       0.21740   0.04785   0.84127 
H          H       0.20272   0.17406   0.52165 
H          H       0.09557   0.10833   0.55005 
H          H       0.30269   0.19979   0.62368 
H          H       0.37908   0.23688   0.80734 
H          H       0.48432   0.28873   0.84447 
H          H       0.50200   0.15611   0.61114 
H          H       0.39636   0.10203   0.58762 
H          H       0.57481   0.18204   0.78297 
H          H       0.95191   0.10019   0.68576 
H          H       0.88861   0.14237   0.73508 
H          H       0.74321   0.06797   0.50391 
H          H       0.68204   0.10152   0.99278 
H          H       0.62567   0.15266   0.97694 
H          H       0.76651   0.29445   0.65469 
H          H       0.82373   0.24419   0.67194 
H          H       0.73076   0.34498   0.82593 
H          H       0.85932   0.90536   0.77534 
H          H       0.82881   0.81418   0.87133 
H          H       0.77797   0.70777   0.84020 
H          H       0.91907   0.73658   0.98917 
H          H       0.96401   0.84345   0.50047 
H          H       0.83630   0.63384   0.56220 
H          H       0.81716   0.54349   0.62657 
H          H       0.76686   0.43518   0.63601 
H          H       0.61804   0.42138   0.91885 
H          H       0.66829   0.52972   0.90868 
H          H       0.57546   0.34538   0.72521 
H          H       0.08920   0.86005   0.54691 
H          H       0.00456   0.83335   0.76363 
H          H       0.05681   0.89269   0.86707 
H          H       0.16167   0.81311   0.87913 
H          H       0.15647   0.79304   0.67531 
H          H       0.06472   0.77449   0.71175 
H          H       0.22959   0.90830   0.76823 
H          H       0.21647   0.89200   0.56611 
H          H       0.15878   0.93645   0.80419 
H          H       0.17238   0.95250   0.59068 
H          H       0.76504   0.98500   0.54676 
H          H       0.01426   0.06528   0.76971 
H          H       0.82844   0.94603   0.95511 
