data_crystal
 
_cell_length_a    36.02520
_cell_length_b    36.02520
_cell_length_c    10.20590
_cell_angle_alpha 90.00000
_cell_angle_beta  90.00000
_cell_angle_gamma 120.00000
 
_space_group_name_Hall 'P 1'
_space_group_name_H-M_alt  'P 1'
 
loop_
_symmetry_equiv_pos_as_xyz
 'x,y,z' 
 
loop_
_atom_site_label
_atom_site_type_symbol
_atom_site_fract_x
_atom_site_fract_y
_atom_site_fract_z
C          C       0.01079   0.04514   0.33333 
N          N       0.96828   0.01529   0.33333 
O          O       0.02349   0.08789   0.33333 
C          C       0.99358   0.10048   0.33333 
C          C       0.00619   0.14292   0.33333 
C          C       0.97629   0.15551   0.33333 
C          C       0.93379   0.12566   0.33333 
C          C       0.92117   0.08322   0.33333 
C          C       0.95107   0.07063   0.33333 
C          C       0.90388   0.13825   0.33333 
N          N       0.91188   0.17959   0.33333 
C          C       0.87367   0.17860   0.33333 
C          C       0.84187   0.13681   0.33333 
N          N       0.86043   0.11194   0.33333 
C          C       0.79983   0.12679   0.33333 
H          H       0.04177   0.16793   0.33333 
H          H       0.98683   0.19108   0.33333 
H          H       0.88560   0.05821   0.33333 
H          H       0.94054   0.03506   0.33333 
C          C       0.95543   0.97214   0.33333 
N          N       0.98528   0.95948   0.33333 
O          O       0.91268   0.94209   0.33333 
C          C       0.90009   0.89959   0.33333 
C          C       0.85765   0.86976   0.33333 
C          C       0.84506   0.82726   0.33333 
C          C       0.87491   0.81461   0.33333 
C          C       0.91735   0.84444   0.33333 
C          C       0.92994   0.88693   0.33333 
C          C       0.86232   0.77211   0.33333 
N          N       0.82097   0.73877   0.33333 
C          C       0.82196   0.70155   0.33333 
C          C       0.86375   0.71154   0.33333 
N          N       0.88863   0.75497   0.33333 
C          C       0.87378   0.67952   0.33333 
C          C       0.02843   0.98978   0.33333 
N          N       0.04109   0.03229   0.33333 
O          O       0.05848   0.97707   0.33333 
C          C       0.10098   0.00698   0.33333 
C          C       0.13081   0.99437   0.33333 
C          C       0.17331   0.02428   0.33333 
C          C       0.18596   0.06678   0.33333 
C          C       0.15613   0.07939   0.33333 
C          C       0.11364   0.04949   0.33333 
C          C       0.22846   0.09669   0.33333 
N          N       0.26180   0.08869   0.33333 
C          C       0.29902   0.12690   0.33333 
C          C       0.28903   0.15870   0.33333 
N          N       0.24560   0.14014   0.33333 
C          C       0.32104   0.20074   0.33333 
C          C       0.65254   0.29266   0.33333 
N          N       0.69505   0.32251   0.33333 
O          O       0.63984   0.24991   0.33333 
C          C       0.66975   0.23732   0.33333 
C          C       0.65714   0.19488   0.33333 
C          C       0.68705   0.18229   0.33333 
C          C       0.72955   0.21214   0.33333 
C          C       0.74216   0.25458   0.33333 
C          C       0.71226   0.26717   0.33333 
C          C       0.75946   0.19955   0.33333 
N          N       0.75145   0.15821   0.33333 
C          C       0.78967   0.15920   0.33333 
C          C       0.82146   0.20099   0.33333 
N          N       0.80291   0.22586   0.33333 
C          C       0.86350   0.21101   0.33333 
C          C       0.70790   0.36566   0.33333 
N          N       0.67805   0.37832   0.33333 
O          O       0.75065   0.39571   0.33333 
C          C       0.76324   0.43821   0.33333 
C          C       0.80568   0.46804   0.33333 
C          C       0.81828   0.51054   0.33333 
C          C       0.78843   0.52319   0.33333 
C          C       0.74599   0.49336   0.33333 
C          C       0.73340   0.45087   0.33333 
C          C       0.80102   0.56569   0.33333 
N          N       0.84236   0.59903   0.33333 
C          C       0.84137   0.63625   0.33333 
C          C       0.79958   0.62626   0.33333 
N          N       0.77471   0.58283   0.33333 
C          C       0.78956   0.65828   0.33333 
C          C       0.63490   0.34802   0.33333 
N          N       0.62224   0.30551   0.33333 
O          O       0.60486   0.36073   0.33333 
C          C       0.56236   0.33082   0.33333 
C          C       0.53253   0.34343   0.33333 
C          C       0.49003   0.31352   0.33333 
C          C       0.47737   0.27102   0.33333 
C          C       0.50720   0.25841   0.33333 
C          C       0.54969   0.28831   0.33333 
C          C       0.43487   0.24111   0.33333 
N          N       0.40154   0.24911   0.33333 
C          C       0.36431   0.21090   0.33333 
C          C       0.37431   0.17910   0.33333 
N          N       0.41774   0.19766   0.33333 
C          C       0.34229   0.13706   0.33333 
C          C       0.34514   0.70907   0.66667 
N          N       0.30263   0.67922   0.66667 
O          O       0.35784   0.75182   0.66667 
C          C       0.32793   0.76441   0.66667 
C          C       0.34054   0.80685   0.66667 
C          C       0.31063   0.81944   0.66667 
C          C       0.26813   0.78959   0.66667 
C          C       0.25552   0.74715   0.66667 
C          C       0.28542   0.73456   0.66667 
C          C       0.23822   0.80218   0.66667 
N          N       0.24623   0.84352   0.66667 
C          C       0.20801   0.84254   0.66667 
C          C       0.17622   0.80074   0.66667 
N          N       0.19477   0.77587   0.66667 
C          C       0.13418   0.79072   0.66667 
C          C       0.28978   0.63607   0.66667 
N          N       0.31963   0.62341   0.66667 
O          O       0.24703   0.60602   0.66667 
C          C       0.23444   0.56352   0.66667 
C          C       0.19200   0.53369   0.66667 
C          C       0.17940   0.49119   0.66667 
C          C       0.20925   0.47854   0.66667 
C          C       0.25169   0.50837   0.66667 
C          C       0.26428   0.55086   0.66667 
C          C       0.19666   0.43604   0.66667 
N          N       0.15532   0.40270   0.66667 
C          C       0.15631   0.36548   0.66667 
C          C       0.19810   0.37547   0.66667 
N          N       0.22297   0.41890   0.66667 
C          C       0.20812   0.34345   0.66667 
C          C       0.36278   0.65371   0.66667 
N          N       0.37544   0.69622   0.66667 
O          O       0.39282   0.64101   0.66667 
C          C       0.43532   0.67092   0.66667 
C          C       0.46515   0.65830   0.66667 
C          C       0.50765   0.68821   0.66667 
C          C       0.52031   0.73071   0.66667 
C          C       0.49048   0.74332   0.66667 
C          C       0.44799   0.71343   0.66667 
C          C       0.56281   0.76062   0.66667 
N          N       0.59614   0.75262   0.66667 
C          C       0.63337   0.79083   0.66667 
C          C       0.62337   0.82263   0.66667 
N          N       0.57994   0.80407   0.66667 
C          C       0.65539   0.86467   0.66667 
C          C       0.98689   0.95660   0.66667 
N          N       0.02940   0.98644   0.66667 
O          O       0.97419   0.91385   0.66667 
C          C       0.00410   0.90125   0.66667 
C          C       0.99149   0.85881   0.66667 
C          C       0.02139   0.84622   0.66667 
C          C       0.06389   0.87607   0.66667 
C          C       0.07651   0.91851   0.66667 
C          C       0.04661   0.93110   0.66667 
C          C       0.09380   0.86348   0.66667 
N          N       0.08580   0.82214   0.66667 
C          C       0.12401   0.82313   0.66667 
C          C       0.15581   0.86492   0.66667 
N          N       0.13725   0.88979   0.66667 
C          C       0.19785   0.87494   0.66667 
H          H       0.95591   0.83380   0.66667 
C          C       0.04225   0.02959   0.66667 
N          N       0.01240   0.04226   0.66667 
O          O       0.08500   0.05964   0.66667 
C          C       0.09759   0.10214   0.66667 
C          C       0.14003   0.13197   0.66667 
C          C       0.15262   0.17447   0.66667 
C          C       0.12277   0.18712   0.66667 
C          C       0.08033   0.15729   0.66667 
C          C       0.06774   0.11480   0.66667 
C          C       0.13536   0.22962   0.66667 
N          N       0.17671   0.26296   0.66667 
C          C       0.17572   0.30018   0.66667 
C          C       0.13393   0.29019   0.66667 
N          N       0.10905   0.24676   0.66667 
C          C       0.12390   0.32221   0.66667 
C          C       0.96925   0.01196   0.66667 
N          N       0.95659   0.96945   0.66667 
O          O       0.93920   0.02466   0.66667 
C          C       0.89670   0.99475   0.66667 
C          C       0.86687   0.00736   0.66667 
C          C       0.82437   0.97745   0.66667 
C          C       0.81172   0.93495   0.66667 
C          C       0.84155   0.92234   0.66667 
C          C       0.88404   0.95224   0.66667 
C          C       0.76922   0.90504   0.66667 
N          N       0.73588   0.91305   0.66667 
C          C       0.69866   0.87483   0.66667 
C          C       0.70865   0.84303   0.66667 
N          N       0.75208   0.86159   0.66667 
C          C       0.67664   0.80099   0.66667 
C          C       0.67877   0.37589   0.00000 
N          N       0.63626   0.34604   0.00000 
O          O       0.69148   0.41864   0.00000 
C          C       0.66157   0.43123   0.00000 
C          C       0.67418   0.47367   0.00000 
C          C       0.64427   0.48626   0.00000 
C          C       0.60177   0.45641   0.00000 
C          C       0.58916   0.41397   0.00000 
C          C       0.61906   0.40138   0.00000 
C          C       0.57186   0.46900   0.00000 
N          N       0.57986   0.51034   0.00000 
C          C       0.54165   0.50935   0.00000 
C          C       0.50985   0.46756   0.00000 
N          N       0.52841   0.44269   0.00000 
C          C       0.46781   0.45754   0.00000 
C          C       0.62341   0.30289   0.00000 
N          N       0.65326   0.29023   0.00000 
O          O       0.58066   0.27284   0.00000 
C          C       0.56807   0.23034   0.00000 
C          C       0.52563   0.20051   0.00000 
C          C       0.51304   0.15801   0.00000 
C          C       0.54289   0.14536   0.00000 
C          C       0.58533   0.17519   0.00000 
C          C       0.59792   0.21768   0.00000 
C          C       0.53030   0.10286   0.00000 
N          N       0.48896   0.06952   0.00000 
C          C       0.48995   0.03230   0.00000 
C          C       0.53174   0.04229   0.00000 
N          N       0.55661   0.08572   0.00000 
C          C       0.54176   0.01027   0.00000 
C          C       0.69641   0.32053   0.00000 
N          N       0.70907   0.36304   0.00000 
O          O       0.72646   0.30782   0.00000 
C          C       0.76896   0.33773   0.00000 
C          C       0.79879   0.32512   0.00000 
C          C       0.84129   0.35503   0.00000 
C          C       0.85394   0.39753   0.00000 
C          C       0.82411   0.41014   0.00000 
C          C       0.78162   0.38024   0.00000 
C          C       0.89644   0.42744   0.00000 
N          N       0.92978   0.41944   0.00000 
C          C       0.96700   0.45765   0.00000 
C          C       0.95701   0.48945   0.00000 
N          N       0.91358   0.47089   0.00000 
C          C       0.98903   0.53149   0.00000 
C          C       0.32053   0.62341   0.00000 
N          N       0.36304   0.65326   0.00000 
O          O       0.30782   0.58066   0.00000 
C          C       0.33773   0.56807   0.00000 
C          C       0.32512   0.52563   0.00000 
C          C       0.35503   0.51304   0.00000 
C          C       0.39753   0.54289   0.00000 
C          C       0.41014   0.58533   0.00000 
C          C       0.38024   0.59792   0.00000 
C          C       0.42744   0.53030   0.00000 
N          N       0.41944   0.48896   0.00000 
C          C       0.45765   0.48995   0.00000 
C          C       0.48945   0.53174   0.00000 
N          N       0.47089   0.55661   0.00000 
C          C       0.53149   0.54176   0.00000 
C          C       0.37589   0.69641   0.00000 
N          N       0.34604   0.70907   0.00000 
O          O       0.41864   0.72646   0.00000 
C          C       0.43123   0.76896   0.00000 
C          C       0.47367   0.79879   0.00000 
C          C       0.48626   0.84129   0.00000 
C          C       0.45641   0.85394   0.00000 
C          C       0.41397   0.82411   0.00000 
C          C       0.40138   0.78162   0.00000 
C          C       0.46900   0.89644   0.00000 
N          N       0.51034   0.92978   0.00000 
C          C       0.50935   0.96700   0.00000 
C          C       0.46756   0.95701   0.00000 
N          N       0.44269   0.91358   0.00000 
C          C       0.45754   0.98903   0.00000 
C          C       0.30289   0.67877   0.00000 
N          N       0.29023   0.63626   0.00000 
O          O       0.27284   0.69148   0.00000 
C          C       0.23034   0.66157   0.00000 
C          C       0.20051   0.67418   0.00000 
C          C       0.15801   0.64427   0.00000 
C          C       0.14536   0.60177   0.00000 
C          C       0.17519   0.58916   0.00000 
C          C       0.21768   0.61906   0.00000 
C          C       0.10286   0.57186   0.00000 
N          N       0.06952   0.57986   0.00000 
C          C       0.03230   0.54165   0.00000 
C          C       0.04229   0.50985   0.00000 
N          N       0.08572   0.52841   0.00000 
C          C       0.01027   0.46781   0.00000 
H          H       0.77572   0.09512   0.33333 
H          H       0.83500   0.87931   0.33333 
H          H       0.81286   0.80462   0.33333 
H          H       0.94000   0.83488   0.33333 
H          H       0.96215   0.90957   0.33333 
H          H       0.92018   0.77125   0.33333 
H          H       0.90551   0.68729   0.33333 
H          H       0.19593   0.01469   0.33333 
H          H       0.16569   0.11159   0.33333 
H          H       0.09100   0.05906   0.33333 
H          H       0.22931   0.15540   0.33333 
H          H       0.31355   0.22490   0.33333 
H          H       0.62494   0.17223   0.33333 
H          H       0.67749   0.15009   0.33333 
H          H       0.77436   0.27723   0.33333 
H          H       0.72183   0.29938   0.33333 
H          H       0.81817   0.25741   0.33333 
H          H       0.88761   0.24268   0.33333 
H          H       0.82833   0.45848   0.33333 
H          H       0.85049   0.53318   0.33333 
H          H       0.72334   0.50292   0.33333 
H          H       0.70119   0.42823   0.33333 
H          H       0.74316   0.56654   0.33333 
H          H       0.75783   0.65051   0.33333 
H          H       0.54208   0.37563   0.33333 
H          H       0.46739   0.32309   0.33333 
H          H       0.49764   0.22621   0.33333 
H          H       0.57233   0.27874   0.33333 
H          H       0.43403   0.18240   0.33333 
H          H       0.34978   0.11290   0.33333 
H          H       0.37274   0.82950   0.66667 
H          H       0.32019   0.85164   0.66667 
H          H       0.22332   0.72450   0.66667 
H          H       0.27585   0.70235   0.66667 
H          H       0.17951   0.74432   0.66667 
H          H       0.11007   0.75905   0.66667 
H          H       0.16935   0.54325   0.66667 
H          H       0.14719   0.46855   0.66667 
H          H       0.27434   0.49881   0.66667 
H          H       0.29649   0.57350   0.66667 
H          H       0.25452   0.43519   0.66667 
H          H       0.23985   0.35122   0.66667 
H          H       0.45559   0.62610   0.66667 
H          H       0.53029   0.67864   0.66667 
H          H       0.50004   0.77552   0.66667 
H          H       0.42536   0.72301   0.66667 
H          H       0.56365   0.81933   0.66667 
H          H       0.64790   0.88883   0.66667 
H          H       0.01180   0.81401   0.66667 
H          H       0.10871   0.94115   0.66667 
H          H       0.05618   0.96331   0.66667 
H          H       0.15251   0.92134   0.66667 
H          H       0.22196   0.90661   0.66667 
H          H       0.16268   0.12242   0.66667 
H          H       0.18482   0.19711   0.66667 
H          H       0.05768   0.16685   0.66667 
H          H       0.03553   0.09216   0.66667 
H          H       0.07750   0.23048   0.66667 
H          H       0.09217   0.31444   0.66667 
H          H       0.87311   0.03964   0.67220 
H          H       0.79674   0.98123   0.66667 
H          H       0.83199   0.89014   0.66667 
H          H       0.90668   0.94267   0.66667 
H          H       0.76837   0.84633   0.66667 
H          H       0.68413   0.77683   0.66667 
H          H       0.70638   0.49632   0.00000 
H          H       0.65383   0.51846   0.00000 
H          H       0.55696   0.39132   0.00000 
H          H       0.60949   0.36917   0.00000 
H          H       0.51315   0.41114   0.00000 
H          H       0.44370   0.42587   0.00000 
H          H       0.50298   0.21006   0.00000 
H          H       0.48084   0.13537   0.00000 
H          H       0.60798   0.16563   0.00000 
H          H       0.63013   0.24032   0.00000 
H          H       0.58816   0.10201   0.00000 
H          H       0.57585   0.02406   0.00000 
H          H       0.78924   0.29292   0.00000 
H          H       0.86393   0.34547   0.00000 
H          H       0.83367   0.44234   0.00000 
H          H       0.75898   0.38981   0.00000 
H          H       0.89729   0.48615   0.00000 
H          H       0.97524   0.55179   0.00000 
H          H       0.29292   0.50298   0.00000 
H          H       0.34547   0.48084   0.00000 
H          H       0.44234   0.60798   0.00000 
H          H       0.38981   0.63013   0.00000 
H          H       0.48615   0.58816   0.00000 
H          H       0.55560   0.57343   0.00000 
H          H       0.49632   0.78924   0.00000 
H          H       0.51846   0.86393   0.00000 
H          H       0.39132   0.83367   0.00000 
H          H       0.36917   0.75898   0.00000 
H          H       0.41114   0.89729   0.00000 
H          H       0.42345   0.97524   0.00000 
H          H       0.21006   0.70638   0.00000 
H          H       0.13537   0.65383   0.00000 
H          H       0.16563   0.55696   0.00000 
H          H       0.24032   0.60949   0.00000 
H          H       0.10201   0.51315   0.00000 
H          H       0.02406   0.44751   0.00000 
H          H       0.83633   0.08185   0.33469 
H          H       0.12001   0.96208   0.33272 
