data_crystal

_cell_length_a    36.02520
_cell_length_b    36.02520
_cell_length_c    6.80460
_cell_angle_alpha 90.00000
_cell_angle_beta  90.00000
_cell_angle_gamma 120.00000

_space_group_name_Hall 'P 1'
_space_group_name_H-M_alt  'P 1'

loop_
_symmetry_equiv_pos_as_xyz
'x,y,z' 

loop_
_atom_site_label
_atom_site_type_symbol
_atom_site_fract_x
_atom_site_fract_y
_atom_site_fract_z
C          C       0.68177   0.37755   0.35304 
C          C       0.62245   0.30422   0.35304 
C          C       0.69578   0.31823   0.35304 
C          C       0.31823   0.62245   0.35304 
C          C       0.37755   0.69578   0.35304 
C          C       0.30422   0.68177   0.35304 
N          N       0.63908   0.34757   0.35304 
N          N       0.65243   0.29151   0.35304 
N          N       0.70849   0.36092   0.35304 
N          N       0.36092   0.65243   0.35304 
N          N       0.34757   0.70849   0.35304 
N          N       0.29151   0.63908   0.35304 
O          O       0.69453   0.42049   0.35304 
O          O       0.57951   0.27404   0.35304 
O          O       0.72596   0.30547   0.35304 
O          O       0.30547   0.57951   0.35304 
O          O       0.42049   0.72596   0.35304 
O          O       0.27404   0.69453   0.35304 
C          C       0.66449   0.43313   0.35304 
C          C       0.56687   0.23136   0.35304 
C          C       0.76864   0.33551   0.35304 
C          C       0.33551   0.56687   0.35304 
C          C       0.43313   0.76864   0.35304 
C          C       0.23136   0.66449   0.35304 
C          C       0.67716   0.47576   0.35304 
C          C       0.52424   0.20140   0.35304 
C          C       0.79860   0.32284   0.35304 
C          C       0.32284   0.52424   0.35304 
C          C       0.47576   0.79860   0.35304 
C          C       0.20140   0.67716   0.35304 
C          C       0.64712   0.48841   0.35304 
C          C       0.51159   0.15871   0.35304 
C          C       0.84129   0.35288   0.35304 
C          C       0.35288   0.51159   0.35304 
C          C       0.48841   0.84129   0.35304 
C          C       0.15871   0.64712   0.35304 
C          C       0.60443   0.45843   0.35304 
C          C       0.54157   0.14600   0.35304 
C          C       0.85400   0.39557   0.35304 
C          C       0.39557   0.54157   0.35304 
C          C       0.45843   0.85400   0.35304 
C          C       0.14600   0.60443   0.35304 
C          C       0.59176   0.41580   0.35304 
C          C       0.58420   0.17596   0.35304 
C          C       0.82404   0.40824   0.35304 
C          C       0.40824   0.58420   0.35304 
C          C       0.41580   0.82404   0.35304 
C          C       0.17596   0.59176   0.35304 
C          C       0.62179   0.40315   0.35304 
C          C       0.59685   0.21864   0.35304 
C          C       0.78136   0.37821   0.35304 
C          C       0.37821   0.59685   0.35304 
C          C       0.40315   0.78136   0.35304 
C          C       0.21864   0.62179   0.35304 
C          C       0.57439   0.47107   0.35304 
C          C       0.52893   0.10332   0.35304 
C          C       0.89668   0.42561   0.35304 
C          C       0.42561   0.52893   0.35304 
C          C       0.47107   0.89668   0.35304 
C          C       0.10332   0.57439   0.35304 
N          N       0.58243   0.51260   0.35304 
N          N       0.48740   0.06983   0.35304 
N          N       0.93017   0.41757   0.35304 
N          N       0.41757   0.48740   0.35304 
N          N       0.51260   0.93017   0.35304 
N          N       0.06983   0.58243   0.35304 
C          C       0.54404   0.51160   0.35304 
C          C       0.48840   0.03244   0.35304 
C          C       0.96756   0.45596   0.35304 
C          C       0.45596   0.48840   0.35304 
C          C       0.51160   0.96756   0.35304 
C          C       0.03244   0.54404   0.35304 
C          C       0.51211   0.46963   0.35304 
C          C       0.53037   0.04248   0.35304 
C          C       0.95752   0.48789   0.35304 
C          C       0.48789   0.53037   0.35304 
C          C       0.46963   0.95752   0.35304 
C          C       0.04248   0.51211   0.35304 
N          N       0.53074   0.44465   0.35304 
N          N       0.55535   0.08609   0.35304 
N          N       0.91391   0.46926   0.35304 
N          N       0.46926   0.55535   0.35304 
N          N       0.44465   0.91391   0.35304 
N          N       0.08609   0.53074   0.35304 
C          C       0.46988   0.45956   0.35304 
C          C       0.54044   0.01032   0.35304 
C          C       0.98968   0.53012   0.35304 
C          C       0.53012   0.54044   0.35304 
C          C       0.45956   0.98968   0.35304 
C          C       0.01032   0.46988   0.35304 
H          H       0.70936   0.49841   0.35304 
H          H       0.50159   0.21096   0.35304 
H          H       0.78904   0.29064   0.35304 
H          H       0.29064   0.50159   0.35304 
H          H       0.49841   0.78904   0.35304 
H          H       0.21096   0.70936   0.35304 
H          H       0.65669   0.52062   0.35304 
H          H       0.47938   0.13607   0.35304 
H          H       0.86393   0.34331   0.35304 
H          H       0.34331   0.47938   0.35304 
H          H       0.52062   0.86393   0.35304 
H          H       0.13607   0.65669   0.35304 
H          H       0.55956   0.39315   0.35304 
H          H       0.60685   0.16640   0.35304 
H          H       0.83360   0.44044   0.35304 
H          H       0.44044   0.60685   0.35304 
H          H       0.39315   0.83360   0.35304 
H          H       0.16640   0.55956   0.35304 
H          H       0.61222   0.37094   0.35304 
H          H       0.62906   0.24128   0.35304 
H          H       0.75872   0.38778   0.35304 
H          H       0.38778   0.62906   0.35304 
H          H       0.37094   0.75872   0.35304 
H          H       0.24128   0.61222   0.35304 
H          H       0.41310   0.89763   0.35304 
H          H       0.44686   0.42748   0.35304 
H          H       0.55314   0.57252   0.35304 
H          H       0.01272   0.44044   0.35304 
H          H       0.57083   0.02030   0.35304 
H          H       0.97985   0.55262   0.35304 
H          H       0.42826   0.97545   0.35304 
H          H       0.89179   0.48696   0.34205 
H          H       0.10229   0.50885   0.35577 
H          H       0.47536   0.58538   0.34957 
H          H       0.51144   0.40690   0.35729 
H          H       0.58944   0.10180   0.35153 
C          C       0.68177   0.37755   0.85304 
C          C       0.62245   0.30422   0.85304 
C          C       0.69578   0.31823   0.85304 
C          C       0.31823   0.62245   0.85304 
C          C       0.37755   0.69578   0.85304 
C          C       0.30422   0.68177   0.85304 
N          N       0.63908   0.34757   0.85304 
N          N       0.65243   0.29151   0.85304 
N          N       0.70849   0.36092   0.85304 
N          N       0.36092   0.65243   0.85304 
N          N       0.34757   0.70849   0.85304 
N          N       0.29151   0.63908   0.85304 
O          O       0.69453   0.42049   0.85304 
O          O       0.57951   0.27404   0.85304 
O          O       0.72596   0.30547   0.85304 
O          O       0.30547   0.57951   0.85304 
O          O       0.42049   0.72596   0.85304 
O          O       0.27404   0.69453   0.85304 
C          C       0.66449   0.43313   0.85304 
C          C       0.56687   0.23136   0.85304 
C          C       0.76864   0.33551   0.85304 
C          C       0.33551   0.56687   0.85304 
C          C       0.43313   0.76864   0.85304 
C          C       0.23136   0.66449   0.85304 
C          C       0.67716   0.47576   0.85304 
C          C       0.52424   0.20140   0.85304 
C          C       0.79860   0.32284   0.85304 
C          C       0.32284   0.52424   0.85304 
C          C       0.47576   0.79860   0.85304 
C          C       0.20140   0.67716   0.85304 
C          C       0.64712   0.48841   0.85304 
C          C       0.51159   0.15871   0.85304 
C          C       0.84129   0.35288   0.85304 
C          C       0.35288   0.51159   0.85304 
C          C       0.48841   0.84129   0.85304 
C          C       0.15871   0.64712   0.85304 
C          C       0.60443   0.45843   0.85304 
C          C       0.54157   0.14600   0.85304 
C          C       0.85400   0.39557   0.85304 
C          C       0.39557   0.54157   0.85304 
C          C       0.45843   0.85400   0.85304 
C          C       0.14600   0.60443   0.85304 
C          C       0.59176   0.41580   0.85304 
C          C       0.58420   0.17596   0.85304 
C          C       0.82404   0.40824   0.85304 
C          C       0.40824   0.58420   0.85304 
C          C       0.41580   0.82404   0.85304 
C          C       0.17596   0.59176   0.85304 
C          C       0.62179   0.40315   0.85304 
C          C       0.59685   0.21864   0.85304 
C          C       0.78136   0.37821   0.85304 
C          C       0.37821   0.59685   0.85304 
C          C       0.40315   0.78136   0.85304 
C          C       0.21864   0.62179   0.85304 
C          C       0.57439   0.47107   0.85304 
C          C       0.52893   0.10332   0.85304 
C          C       0.89668   0.42561   0.85304 
C          C       0.42561   0.52893   0.85304 
C          C       0.47107   0.89668   0.85304 
C          C       0.10332   0.57439   0.85304 
N          N       0.58243   0.51260   0.85304 
N          N       0.48740   0.06983   0.85304 
N          N       0.93017   0.41757   0.85304 
N          N       0.41757   0.48740   0.85304 
N          N       0.51260   0.93017   0.85304 
N          N       0.06983   0.58243   0.85304 
C          C       0.54404   0.51160   0.85304 
C          C       0.48840   0.03244   0.85304 
C          C       0.96756   0.45596   0.85304 
C          C       0.45596   0.48840   0.85304 
C          C       0.51160   0.96756   0.85304 
C          C       0.03244   0.54404   0.85304 
C          C       0.51211   0.46963   0.85304 
C          C       0.53037   0.04248   0.85304 
C          C       0.95752   0.48789   0.85304 
C          C       0.48789   0.53037   0.85304 
C          C       0.46963   0.95752   0.85304 
C          C       0.04248   0.51211   0.85304 
N          N       0.53074   0.44465   0.85304 
N          N       0.55535   0.08609   0.85304 
N          N       0.91391   0.46926   0.85304 
N          N       0.46926   0.55535   0.85304 
N          N       0.44465   0.91391   0.85304 
N          N       0.08609   0.53074   0.85304 
C          C       0.46988   0.45956   0.85304 
C          C       0.54044   0.01032   0.85304 
C          C       0.98968   0.53012   0.85304 
C          C       0.53012   0.54044   0.85304 
C          C       0.45956   0.98968   0.85304 
C          C       0.01032   0.46988   0.85304 
H          H       0.70936   0.49841   0.85304 
H          H       0.50159   0.21096   0.85304 
H          H       0.78904   0.29064   0.85304 
H          H       0.29064   0.50159   0.85304 
H          H       0.49841   0.78904   0.85304 
H          H       0.21096   0.70936   0.85304 
H          H       0.65669   0.52062   0.85304 
H          H       0.47938   0.13607   0.85304 
H          H       0.86393   0.34331   0.85304 
H          H       0.34331   0.47938   0.85304 
H          H       0.52062   0.86393   0.85304 
H          H       0.13607   0.65669   0.85304 
H          H       0.55956   0.39315   0.85304 
H          H       0.60685   0.16640   0.85304 
H          H       0.83360   0.44044   0.85304 
H          H       0.44044   0.60685   0.85304 
H          H       0.39315   0.83360   0.85304 
H          H       0.16640   0.55956   0.85304 
H          H       0.61222   0.37094   0.85304 
H          H       0.62906   0.24128   0.85304 
H          H       0.75872   0.38778   0.85304 
H          H       0.38778   0.62906   0.85304 
H          H       0.37094   0.75872   0.85304 
H          H       0.24128   0.61222   0.85304 
H          H       0.41310   0.89763   0.85304 
H          H       0.44686   0.42748   0.85304 
H          H       0.55314   0.57252   0.85304 
H          H       0.01272   0.44044   0.85304 
H          H       0.57083   0.02030   0.85304 
H          H       0.97985   0.55262   0.85304 
H          H       0.42826   0.97545   0.85304 
H          H       0.89179   0.48696   0.84205 
H          H       0.10229   0.50885   0.85577 
H          H       0.47536   0.58538   0.84957 
H          H       0.51144   0.40690   0.85730 
H          H       0.58944   0.10180   0.85153 
