data_crystal
 
_cell_length_a    35.87340
_cell_length_b    35.87340
_cell_length_c    6.77600
_cell_angle_alpha 90.00000
_cell_angle_beta  90.00000
_cell_angle_gamma 120.00000
 
_symmetry_space_group_name_Hall 'P 1'
_symmetry_space_group_name_H-M  'P 1'
 
loop_
_symmetry_equiv_pos_as_xyz
 'x,y,z' 
 
loop_
_atom_site_label
_atom_site_type_symbol
_atom_site_fract_x
_atom_site_fract_y
_atom_site_fract_z
C          C       0.68165   0.37748   0.00000 
N          N       0.63896   0.34750   0.00000 
O          O       0.69440   0.42041   0.00000 
C          C       0.66437   0.43305   0.00000 
C          C       0.67703   0.47567   0.00000 
C          C       0.64699   0.48832   0.00000 
C          C       0.60431   0.45834   0.00000 
C          C       0.59165   0.41572   0.00000 
C          C       0.62168   0.40308   0.00000 
C          C       0.57428   0.47099   0.00000 
N          N       0.58232   0.51250   0.00000 
C          C       0.54394   0.51151   0.00000 
C          C       0.51201   0.46954   0.00000 
N          N       0.53065   0.44456   0.00000 
C          C       0.46979   0.45948   0.00000 
C          C       0.62241   0.30417   0.00000 
N          N       0.65239   0.29145   0.00000 
O          O       0.57948   0.27399   0.00000 
C          C       0.56684   0.23131   0.00000 
C          C       0.52422   0.20136   0.00000 
C          C       0.51157   0.15868   0.00000 
C          C       0.54155   0.14597   0.00000 
C          C       0.58417   0.17593   0.00000 
C          C       0.59681   0.21860   0.00000 
C          C       0.52890   0.10329   0.00000 
N          N       0.48739   0.06982   0.00000 
C          C       0.48838   0.03243   0.00000 
C          C       0.53035   0.04247   0.00000 
N          N       0.55533   0.08608   0.00000 
C          C       0.54041   0.01032   0.00000 
C          C       0.69572   0.31824   0.00000 
N          N       0.70843   0.36093   0.00000 
O          O       0.72590   0.30549   0.00000 
C          C       0.76858   0.33552   0.00000 
C          C       0.79853   0.32286   0.00000 
C          C       0.84121   0.35289   0.00000 
C          C       0.85392   0.39557   0.00000 
C          C       0.82396   0.40824   0.00000 
C          C       0.78129   0.37821   0.00000 
C          C       0.89660   0.42561   0.00000 
N          N       0.93007   0.41757   0.00000 
C          C       0.96745   0.45595   0.00000 
C          C       0.95742   0.48788   0.00000 
N          N       0.91381   0.46924   0.00000 
C          C       0.98957   0.53010   0.00000 
C          C       0.31824   0.62241   0.00000 
N          N       0.36093   0.65239   0.00000 
O          O       0.30549   0.57948   0.00000 
C          C       0.33552   0.56684   0.00000 
C          C       0.32286   0.52422   0.00000 
C          C       0.35289   0.51157   0.00000 
C          C       0.39557   0.54155   0.00000 
C          C       0.40824   0.58417   0.00000 
C          C       0.37821   0.59681   0.00000 
C          C       0.42561   0.52890   0.00000 
N          N       0.41757   0.48739   0.00000 
C          C       0.45595   0.48838   0.00000 
C          C       0.48788   0.53035   0.00000 
N          N       0.46924   0.55533   0.00000 
C          C       0.53010   0.54041   0.00000 
C          C       0.37748   0.69572   0.00000 
N          N       0.34750   0.70843   0.00000 
O          O       0.42041   0.72590   0.00000 
C          C       0.43305   0.76858   0.00000 
C          C       0.47567   0.79853   0.00000 
C          C       0.48832   0.84121   0.00000 
C          C       0.45834   0.85392   0.00000 
C          C       0.41572   0.82396   0.00000 
C          C       0.40308   0.78129   0.00000 
C          C       0.47099   0.89660   0.00000 
N          N       0.51250   0.93007   0.00000 
C          C       0.51151   0.96745   0.00000 
C          C       0.46954   0.95742   0.00000 
N          N       0.44456   0.91381   0.00000 
C          C       0.45948   0.98957   0.00000 
C          C       0.30417   0.68165   0.00000 
N          N       0.29145   0.63896   0.00000 
O          O       0.27399   0.69440   0.00000 
C          C       0.23131   0.66437   0.00000 
C          C       0.20136   0.67703   0.00000 
C          C       0.15868   0.64699   0.00000 
C          C       0.14597   0.60431   0.00000 
C          C       0.17593   0.59165   0.00000 
C          C       0.21860   0.62168   0.00000 
C          C       0.10329   0.57428   0.00000 
N          N       0.06982   0.58232   0.00000 
C          C       0.03243   0.54394   0.00000 
C          C       0.04247   0.51201   0.00000 
N          N       0.08608   0.53065   0.00000 
C          C       0.01032   0.46979   0.00000 
C          C       0.34929   0.71188   0.50003 
N          N       0.30660   0.68190   0.50003 
O          O       0.36205   0.75481   0.50003 
C          C       0.33201   0.76745   0.50003 
C          C       0.34468   0.81007   0.50003 
C          C       0.31464   0.82272   0.50003 
C          C       0.27196   0.79274   0.50003 
C          C       0.25930   0.75012   0.50003 
C          C       0.28932   0.73748   0.50003 
C          C       0.24193   0.80539   0.50003 
N          N       0.24996   0.84690   0.50003 
C          C       0.21159   0.84591   0.50003 
C          C       0.17966   0.80394   0.50003 
N          N       0.19829   0.77896   0.50003 
C          C       0.13744   0.79388   0.50003 
C          C       0.29006   0.63857   0.50003 
N          N       0.32003   0.62586   0.50003 
O          O       0.24713   0.60840   0.50003 
C          C       0.23448   0.56572   0.50003 
C          C       0.19186   0.53576   0.50003 
C          C       0.17922   0.49308   0.50003 
C          C       0.20919   0.48038   0.50003 
C          C       0.25181   0.51033   0.50003 
C          C       0.26446   0.55300   0.50003 
C          C       0.19655   0.43770   0.50003 
N          N       0.15503   0.40422   0.50003 
C          C       0.15603   0.36684   0.50003 
C          C       0.19799   0.37687   0.50003 
N          N       0.22297   0.42048   0.50003 
C          C       0.20806   0.34472   0.50003 
C          C       0.36337   0.65264   0.50003 
N          N       0.37608   0.69533   0.50003 
O          O       0.39354   0.63989   0.50003 
C          C       0.43622   0.66992   0.50003 
C          C       0.46618   0.65726   0.50003 
C          C       0.50886   0.68730   0.50003 
C          C       0.52156   0.72998   0.50003 
C          C       0.49161   0.74264   0.50003 
C          C       0.44894   0.71261   0.50003 
C          C       0.56424   0.76001   0.50003 
N          N       0.59772   0.75197   0.50003 
C          C       0.63510   0.79035   0.50003 
C          C       0.62507   0.82228   0.50003 
N          N       0.58145   0.80364   0.50003 
C          C       0.65722   0.86450   0.50003 
C          C       0.98589   0.95681   0.50003 
N          N       0.02858   0.98679   0.50003 
O          O       0.97313   0.91388   0.50003 
C          C       0.00317   0.90124   0.50003 
C          C       0.99051   0.85862   0.50003 
C          C       0.02054   0.84597   0.50003 
C          C       0.06322   0.87595   0.50003 
C          C       0.07589   0.91857   0.50003 
C          C       0.04586   0.93121   0.50003 
C          C       0.09326   0.86330   0.50003 
N          N       0.08522   0.82179   0.50003 
C          C       0.12359   0.82278   0.50003 
C          C       0.15553   0.86475   0.50003 
N          N       0.13689   0.88973   0.50003 
C          C       0.19774   0.87482   0.50003 
C          C       0.04512   0.03012   0.50003 
N          N       0.01515   0.04284   0.50003 
O          O       0.08805   0.06030   0.50003 
C          C       0.10070   0.10298   0.50003 
C          C       0.14332   0.13293   0.50003 
C          C       0.15596   0.17561   0.50003 
C          C       0.12599   0.18832   0.50003 
C          C       0.08337   0.15836   0.50003 
C          C       0.07072   0.11569   0.50003 
C          C       0.13863   0.23100   0.50003 
N          N       0.18015   0.26448   0.50003 
C          C       0.17915   0.30186   0.50003 
C          C       0.13719   0.29182   0.50003 
N          N       0.11221   0.24821   0.50003 
C          C       0.12712   0.32397   0.50003 
C          C       0.97182   0.01605   0.50003 
N          N       0.95910   0.97336   0.50003 
O          O       0.94164   0.02880   0.50003 
C          C       0.89896   0.99877   0.50003 
C          C       0.86900   0.01143   0.50003 
C          C       0.82632   0.98140   0.50003 
C          C       0.81362   0.93872   0.50003 
C          C       0.84358   0.92605   0.50003 
C          C       0.88625   0.95608   0.50003 
C          C       0.77094   0.90868   0.50003 
N          N       0.73746   0.91672   0.50003 
C          C       0.70008   0.87834   0.50003 
C          C       0.71012   0.84641   0.50003 
N          N       0.75373   0.86505   0.50003 
C          C       0.67796   0.80419   0.50003 
H          H       0.70937   0.49841   0.00000 
H          H       0.65659   0.52066   0.00000 
H          H       0.55931   0.39297   0.00000 
H          H       0.61207   0.37074   0.00000 
H          H       0.51533   0.41288   0.00000 
H          H       0.44665   0.42727   0.00000 
H          H       0.50148   0.21096   0.00000 
H          H       0.47923   0.13595   0.00000 
H          H       0.60692   0.16634   0.00000 
H          H       0.62915   0.24134   0.00000 
H          H       0.58701   0.10244   0.00000 
H          H       0.57391   0.02815   0.00000 
H          H       0.78893   0.29052   0.00000 
H          H       0.86394   0.34328   0.00000 
H          H       0.83356   0.44058   0.00000 
H          H       0.75855   0.38781   0.00000 
H          H       0.89745   0.48456   0.00000 
H          H       0.97859   0.55065   0.00000 
H          H       0.29052   0.50148   0.00000 
H          H       0.34329   0.47923   0.00000 
H          H       0.44058   0.60691   0.00000 
H          H       0.38782   0.62915   0.00000 
H          H       0.48456   0.58701   0.00000 
H          H       0.55324   0.57262   0.00000 
H          H       0.49841   0.78893   0.00000 
H          H       0.52066   0.86394   0.00000 
H          H       0.39297   0.83355   0.00000 
H          H       0.37074   0.75855   0.00000 
H          H       0.41288   0.89745   0.00000 
H          H       0.42913   0.97806   0.00000 
H          H       0.21095   0.70937   0.00000 
H          H       0.13594   0.65659   0.00000 
H          H       0.16634   0.55931   0.00000 
H          H       0.24134   0.61208   0.00000 
H          H       0.10244   0.51533   0.00000 
H          H       0.01866   0.44846   0.00000 
H          H       0.37702   0.83281   0.50003 
H          H       0.32424   0.85506   0.50003 
H          H       0.22696   0.72738   0.50003 
H          H       0.27971   0.70514   0.50003 
H          H       0.18296   0.74728   0.50003 
H          H       0.11430   0.76167   0.50003 
H          H       0.16911   0.54535   0.50003 
H          H       0.14688   0.47034   0.50003 
H          H       0.27455   0.50073   0.50003 
H          H       0.29680   0.57573   0.50003 
H          H       0.25465   0.43683   0.50003 
H          H       0.24028   0.35382   0.50003 
H          H       0.45659   0.62492   0.50003 
H          H       0.53160   0.67770   0.50003 
H          H       0.50120   0.77498   0.50003 
H          H       0.42621   0.72222   0.50003 
H          H       0.56509   0.81897   0.50003 
H          H       0.64816   0.88765   0.50003 
H          H       0.96461   0.82670   0.52741 
H          H       0.01091   0.81362   0.50003 
H          H       0.10823   0.94131   0.50003 
H          H       0.05547   0.96355   0.50003 
H          H       0.15221   0.92141   0.50003 
H          H       0.22088   0.90703   0.50003 
H          H       0.16606   0.12333   0.50003 
H          H       0.18830   0.19835   0.50003 
H          H       0.06063   0.16796   0.50003 
H          H       0.03838   0.09296   0.50003 
H          H       0.08053   0.23185   0.50003 
H          H       0.09490   0.31487   0.50003 
H          H       0.87504   0.04340   0.52607 
H          H       0.80082   0.99069   0.50657 
H          H       0.83398   0.89371   0.50003 
H          H       0.90899   0.94648   0.50003 
H          H       0.77009   0.84973   0.50003 
H          H       0.68701   0.78104   0.50003 
