data_crystal

_cell_length_a    28.92600
_cell_length_b    28.92600
_cell_length_c    7.20800
_cell_angle_alpha 90.00000
_cell_angle_beta  90.00000
_cell_angle_gamma 120.00000

_space_group_name_Hall 'P 1'
_space_group_name_H-M_alt  'P 1'

loop_
_symmetry_equiv_pos_as_xyz
'x,y,z' 

loop_
_atom_site_label
_atom_site_type_symbol
_atom_site_fract_x
_atom_site_fract_y
_atom_site_fract_z
H          H       0.41726   0.33394   0.33729 
H          H       0.66606   0.08332   0.33729 
H          H       0.91668   0.58274   0.33729 
H          H       0.58274   0.66606   0.33729 
H          H       0.33394   0.91668   0.33729 
H          H       0.08332   0.41726   0.33729 
H          H       0.58274   0.66606   0.10777 
H          H       0.33394   0.91668   0.10777 
H          H       0.08332   0.41726   0.10777 
H          H       0.41726   0.33394   0.10777 
H          H       0.66606   0.08332   0.10777 
H          H       0.91668   0.58274   0.10777 
C          C       0.38459   0.67510   0.22253 
C          C       0.32490   0.70949   0.22253 
C          C       0.29051   0.61541   0.22253 
C          C       0.61541   0.32490   0.22253 
C          C       0.67510   0.29051   0.22253 
C          C       0.70949   0.38459   0.22253 
C          C       0.37636   0.71683   0.22253 
C          C       0.28317   0.65953   0.22253 
C          C       0.34047   0.62364   0.22253 
C          C       0.62364   0.28317   0.22253 
C          C       0.71683   0.34047   0.22253 
C          C       0.65953   0.37636   0.22253 
C          C       0.45800   0.44471   0.22253 
C          C       0.55529   0.01329   0.22253 
C          C       0.98671   0.54200   0.22253 
C          C       0.54200   0.55529   0.22253 
C          C       0.44471   0.98671   0.22253 
C          C       0.01329   0.45800   0.22253 
C          C       0.44825   0.48588   0.22253 
C          C       0.51412   0.96237   0.22253 
C          C       0.03763   0.55175   0.22253 
C          C       0.55175   0.51412   0.22253 
C          C       0.48588   0.03763   0.22253 
C          C       0.96237   0.44825   0.22253 
C          C       0.46747   0.57722   0.22253 
C          C       0.42278   0.89025   0.22253 
C          C       0.10975   0.53253   0.22253 
C          C       0.53253   0.42278   0.22253 
C          C       0.57722   0.10975   0.22253 
C          C       0.89025   0.46747   0.22253 
C          C       0.48795   0.54067   0.22253 
C          C       0.45933   0.94728   0.22253 
C          C       0.05272   0.51205   0.22253 
C          C       0.51205   0.45933   0.22253 
C          C       0.54067   0.05272   0.22253 
C          C       0.94728   0.48795   0.22253 
O          O       0.49851   0.63267   0.22253 
O          O       0.36733   0.86584   0.22253 
O          O       0.13416   0.50149   0.22253 
O          O       0.50149   0.36733   0.22253 
O          O       0.63267   0.13416   0.22253 
O          O       0.86584   0.49851   0.22253 
N          N       0.41070   0.55495   0.22253 
N          N       0.44505   0.85575   0.22253 
N          N       0.14425   0.58930   0.22253 
N          N       0.58930   0.44505   0.22253 
N          N       0.55495   0.14425   0.22253 
N          N       0.85575   0.41070   0.22253 
N          N       0.40149   0.59632   0.22253 
N          N       0.40368   0.80517   0.22253 
N          N       0.19483   0.59851   0.22253 
N          N       0.59851   0.40368   0.22253 
N          N       0.59632   0.19483   0.22253 
N          N       0.80517   0.40149   0.22253 
C          C       0.34633   0.57793   0.22253 
C          C       0.42207   0.76840   0.22253 
C          C       0.23160   0.65367   0.22253 
C          C       0.65367   0.42207   0.22253 
C          C       0.57793   0.23160   0.22253 
C          C       0.76840   0.34633   0.22253 
C          C       0.59838   0.65814   0.22253 
C          C       0.34186   0.94024   0.22253 
C          C       0.05976   0.40162   0.22253 
C          C       0.40162   0.34186   0.22253 
C          C       0.65814   0.05976   0.22253 
C          C       0.94024   0.59838   0.22253 
O          O       0.59023   0.60565   0.22253 
O          O       0.39435   0.98458   0.22253 
O          O       0.01542   0.40977   0.22253 
O          O       0.40977   0.39435   0.22253 
O          O       0.60565   0.01542   0.22253 
O          O       0.98458   0.59023   0.22253 
H          H       0.64208   0.68633   0.22253 
H          H       0.31367   0.95575   0.22253 
H          H       0.04425   0.35792   0.22253 
H          H       0.35792   0.31367   0.22253 
H          H       0.68633   0.04425   0.22253 
H          H       0.95575   0.64208   0.22253 
H          H       0.59354   0.52939   0.22253 
H          H       0.47061   0.06415   0.22253 
H          H       0.93585   0.40646   0.22253 
H          H       0.40646   0.47061   0.22253 
H          H       0.52939   0.93585   0.22253 
H          H       0.06415   0.59354   0.22253 
H          H       0.37737   0.51689   0.22253 
H          H       0.48311   0.86048   0.22253 
H          H       0.13952   0.62263   0.22253 
H          H       0.62263   0.48311   0.22253 
H          H       0.51689   0.13952   0.22253 
H          H       0.86048   0.37737   0.22253 
H          H       0.25814   0.57441   0.22253 
H          H       0.42559   0.68373   0.22253 
H          H       0.31627   0.74186   0.22253 
H          H       0.74186   0.42559   0.22253 
H          H       0.57441   0.31627   0.22253 
H          H       0.68373   0.25814   0.22253 
H          H       0.31431   0.53528   0.22253 
H          H       0.46472   0.77903   0.22253 
H          H       0.22097   0.68569   0.22253 
H          H       0.68569   0.46472   0.22253 
H          H       0.53528   0.22097   0.22253 
H          H       0.77903   0.31431   0.22253 
H          H       0.41726   0.33394   0.83728 
H          H       0.66606   0.08332   0.83728 
H          H       0.91668   0.58274   0.83728 
H          H       0.58274   0.66606   0.83728 
H          H       0.33394   0.91668   0.83728 
H          H       0.08332   0.41726   0.83728 
H          H       0.58274   0.66606   0.60777 
H          H       0.33394   0.91668   0.60777 
H          H       0.08332   0.41726   0.60777 
H          H       0.41726   0.33394   0.60777 
H          H       0.66606   0.08332   0.60777 
H          H       0.91668   0.58274   0.60777 
C          C       0.38459   0.67510   0.72253 
C          C       0.32490   0.70949   0.72253 
C          C       0.29051   0.61541   0.72253 
C          C       0.61541   0.32490   0.72253 
C          C       0.67510   0.29051   0.72253 
C          C       0.70949   0.38459   0.72253 
C          C       0.37636   0.71683   0.72253 
C          C       0.28317   0.65953   0.72253 
C          C       0.34047   0.62364   0.72253 
C          C       0.62364   0.28317   0.72253 
C          C       0.71683   0.34047   0.72253 
C          C       0.65953   0.37636   0.72253 
C          C       0.45800   0.44471   0.72253 
C          C       0.55529   0.01329   0.72253 
C          C       0.98671   0.54200   0.72253 
C          C       0.54200   0.55529   0.72253 
C          C       0.44471   0.98671   0.72253 
C          C       0.01329   0.45800   0.72253 
C          C       0.44825   0.48588   0.72253 
C          C       0.51412   0.96237   0.72253 
C          C       0.03763   0.55175   0.72253 
C          C       0.55175   0.51412   0.72253 
C          C       0.48588   0.03763   0.72253 
C          C       0.96237   0.44825   0.72253 
C          C       0.46747   0.57722   0.72253 
C          C       0.42278   0.89025   0.72253 
C          C       0.10975   0.53253   0.72253 
C          C       0.53253   0.42278   0.72253 
C          C       0.57722   0.10975   0.72253 
C          C       0.89025   0.46747   0.72253 
C          C       0.48795   0.54067   0.72253 
C          C       0.45933   0.94728   0.72253 
C          C       0.05272   0.51205   0.72253 
C          C       0.51205   0.45933   0.72253 
C          C       0.54067   0.05272   0.72253 
C          C       0.94728   0.48795   0.72253 
O          O       0.49851   0.63267   0.72253 
O          O       0.36733   0.86584   0.72253 
O          O       0.13416   0.50149   0.72253 
O          O       0.50149   0.36733   0.72253 
O          O       0.63267   0.13416   0.72253 
O          O       0.86584   0.49851   0.72253 
N          N       0.41070   0.55495   0.72253 
N          N       0.44505   0.85575   0.72253 
N          N       0.14425   0.58930   0.72253 
N          N       0.58930   0.44505   0.72253 
N          N       0.55495   0.14425   0.72253 
N          N       0.85575   0.41070   0.72253 
N          N       0.40149   0.59632   0.72253 
N          N       0.40368   0.80517   0.72253 
N          N       0.19483   0.59851   0.72253 
N          N       0.59851   0.40368   0.72253 
N          N       0.59632   0.19483   0.72253 
N          N       0.80517   0.40149   0.72253 
C          C       0.34633   0.57793   0.72253 
C          C       0.42207   0.76840   0.72253 
C          C       0.23160   0.65367   0.72253 
C          C       0.65367   0.42207   0.72253 
C          C       0.57793   0.23160   0.72253 
C          C       0.76840   0.34633   0.72253 
C          C       0.59838   0.65814   0.72253 
C          C       0.34186   0.94024   0.72253 
C          C       0.05976   0.40162   0.72253 
C          C       0.40162   0.34186   0.72253 
C          C       0.65814   0.05976   0.72253 
C          C       0.94024   0.59838   0.72253 
O          O       0.59023   0.60565   0.72253 
O          O       0.39435   0.98458   0.72253 
O          O       0.01542   0.40977   0.72253 
O          O       0.40977   0.39435   0.72253 
O          O       0.60565   0.01542   0.72253 
O          O       0.98458   0.59023   0.72253 
H          H       0.64208   0.68633   0.72253 
H          H       0.31367   0.95575   0.72253 
H          H       0.04425   0.35792   0.72253 
H          H       0.35792   0.31367   0.72253 
H          H       0.68633   0.04425   0.72253 
H          H       0.95575   0.64208   0.72253 
H          H       0.59354   0.52939   0.72253 
H          H       0.47061   0.06415   0.72253 
H          H       0.93585   0.40646   0.72253 
H          H       0.40646   0.47061   0.72253 
H          H       0.52939   0.93585   0.72253 
H          H       0.06415   0.59354   0.72253 
H          H       0.37737   0.51689   0.72253 
H          H       0.48311   0.86048   0.72253 
H          H       0.13952   0.62263   0.72253 
H          H       0.62263   0.48311   0.72253 
H          H       0.51689   0.13952   0.72253 
H          H       0.86048   0.37737   0.72253 
H          H       0.25814   0.57441   0.72253 
H          H       0.42559   0.68373   0.72253 
H          H       0.31627   0.74186   0.72253 
H          H       0.74186   0.42559   0.72253 
H          H       0.57441   0.31627   0.72253 
H          H       0.68373   0.25814   0.72253 
H          H       0.31431   0.53528   0.72253 
H          H       0.46472   0.77903   0.72253 
H          H       0.22097   0.68569   0.72253 
H          H       0.68569   0.46472   0.72253 
H          H       0.53528   0.22097   0.72253 
H          H       0.77903   0.31431   0.72253 
