data_crystal
 
_cell_length_a    35.65650
_cell_length_b    35.65650
_cell_length_c    6.95818
_cell_angle_alpha 90.00000
_cell_angle_beta  90.00000
_cell_angle_gamma 120.00000
 
_space_group_name_Hall 'P 1'
_space_group_name_H-M_alt  'P 1'
 
loop_
_symmetry_equiv_pos_as_xyz
 'x,y,z' 
 
loop_
_atom_site_label
_atom_site_type_symbol
_atom_site_fract_x
_atom_site_fract_y
_atom_site_fract_z
O          O       0.57020   0.07881   0.25000 
O          O       0.92119   0.49139   0.25000 
O          O       0.50861   0.42980   0.25000 
O          O       0.42980   0.92119   0.25000 
O          O       0.07881   0.50861   0.25000 
O          O       0.49139   0.57020   0.25000 
N          N       0.62294   0.31172   0.25000 
N          N       0.68828   0.31122   0.25000 
N          N       0.68878   0.37706   0.25000 
N          N       0.37706   0.68828   0.25000 
N          N       0.31172   0.68878   0.25000 
N          N       0.31122   0.62294   0.25000 
N          N       0.50585   0.07797   0.25000 
N          N       0.92203   0.42788   0.25000 
N          N       0.57212   0.49415   0.25000 
N          N       0.49415   0.92203   0.25000 
N          N       0.07797   0.57212   0.25000 
N          N       0.42788   0.50585   0.25000 
C          C       0.64439   0.28928   0.25000 
C          C       0.71072   0.35511   0.25000 
C          C       0.64489   0.35561   0.25000 
C          C       0.35561   0.71072   0.25000 
C          C       0.28928   0.64489   0.25000 
C          C       0.35511   0.64439   0.25000 
C          C       0.62112   0.37993   0.25000 
C          C       0.62007   0.24119   0.25000 
C          C       0.75881   0.37888   0.25000 
C          C       0.37888   0.62007   0.25000 
C          C       0.37993   0.75881   0.25000 
C          C       0.24119   0.62112   0.25000 
C          C       0.57451   0.21825   0.25000 
C          C       0.78175   0.35626   0.25000 
C          C       0.64374   0.42549   0.25000 
C          C       0.42549   0.78175   0.25000 
C          C       0.21825   0.64374   0.25000 
C          C       0.35626   0.57451   0.25000 
C          C       0.55161   0.17297   0.25000 
C          C       0.82703   0.37864   0.25000 
C          C       0.62136   0.44839   0.25000 
C          C       0.44839   0.82703   0.25000 
C          C       0.17297   0.62136   0.25000 
C          C       0.37864   0.55161   0.25000 
C          C       0.57379   0.14966   0.25000 
C          C       0.85034   0.42413   0.25000 
C          C       0.57587   0.42621   0.25000 
C          C       0.42621   0.85034   0.25000 
C          C       0.14966   0.57587   0.25000 
C          C       0.42413   0.57379   0.25000 
C          C       0.61924   0.17245   0.25000 
C          C       0.82755   0.44679   0.25000 
C          C       0.55321   0.38076   0.25000 
C          C       0.38076   0.82755   0.25000 
C          C       0.17245   0.55321   0.25000 
C          C       0.44679   0.61924   0.25000 
C          C       0.64216   0.21772   0.25000 
C          C       0.78228   0.42444   0.25000 
C          C       0.57556   0.35784   0.25000 
C          C       0.35784   0.78228   0.25000 
C          C       0.21772   0.57556   0.25000 
C          C       0.42444   0.64216   0.25000 
C          C       0.55183   0.45010   0.25000 
C          C       0.54990   0.10173   0.25000 
C          C       0.89827   0.44817   0.25000 
C          C       0.44817   0.54990   0.25000 
C          C       0.45010   0.89827   0.25000 
C          C       0.10173   0.55183   0.25000 
C          C       0.49904   0.03772   0.25000 
C          C       0.96228   0.46132   0.25000 
C          C       0.53868   0.50096   0.25000 
C          C       0.50096   0.96228   0.25000 
C          C       0.03772   0.53868   0.25000 
C          C       0.46132   0.49904   0.25000 
C          C       0.53806   0.03882   0.25000 
C          C       0.96118   0.49924   0.25000 
C          C       0.50076   0.46194   0.25000 
C          C       0.46194   0.96118   0.25000 
C          C       0.03882   0.50076   0.25000 
C          C       0.49924   0.53806   0.25000 
C          C       0.45926   0.99899   0.25000 
C          C       0.00101   0.46027   0.25000 
C          C       0.53973   0.54074   0.25000 
C          C       0.54074   0.00101   0.25000 
C          C       0.99899   0.53973   0.25000 
C          C       0.46027   0.45926   0.25000 
H          H       0.55661   0.23542   0.25000 
H          H       0.76458   0.32119   0.25000 
H          H       0.67881   0.44339   0.25000 
H          H       0.44339   0.76458   0.25000 
H          H       0.23542   0.67881   0.25000 
H          H       0.32119   0.55661   0.25000 
H          H       0.51653   0.15605   0.25000 
H          H       0.84395   0.36048   0.25000 
H          H       0.63952   0.48347   0.25000 
H          H       0.48347   0.84395   0.25000 
H          H       0.15605   0.63952   0.25000 
H          H       0.36048   0.51653   0.25000 
H          H       0.63684   0.15493   0.25000 
H          H       0.84507   0.48191   0.25000 
H          H       0.51809   0.36316   0.25000 
H          H       0.36316   0.84507   0.25000 
H          H       0.15493   0.51809   0.25000 
H          H       0.48191   0.63684   0.25000 
H          H       0.67722   0.23447   0.25000 
H          H       0.76553   0.44275   0.25000 
H          H       0.55725   0.32278   0.25000 
H          H       0.32278   0.76553   0.25000 
H          H       0.23447   0.55725   0.25000 
H          H       0.44275   0.67722   0.25000 
H          H       0.42858   0.99815   0.25000 
H          H       0.00185   0.43043   0.25000 
H          H       0.56957   0.57142   0.25000 
H          H       0.57142   0.00185   0.25000 
H          H       0.99815   0.56957   0.25000 
H          H       0.43043   0.42858   0.25000 
O          O       0.57020   0.07881   0.75000 
O          O       0.92119   0.49139   0.75000 
O          O       0.50861   0.42980   0.75000 
O          O       0.42980   0.92119   0.75000 
O          O       0.07881   0.50861   0.75000 
O          O       0.49139   0.57020   0.75000 
N          N       0.62294   0.31172   0.75000 
N          N       0.68828   0.31122   0.75000 
N          N       0.68878   0.37706   0.75000 
N          N       0.37706   0.68828   0.75000 
N          N       0.31172   0.68878   0.75000 
N          N       0.31122   0.62294   0.75000 
N          N       0.50585   0.07797   0.75000 
N          N       0.92203   0.42788   0.75000 
N          N       0.57212   0.49415   0.75000 
N          N       0.49415   0.92203   0.75000 
N          N       0.07797   0.57212   0.75000 
N          N       0.42788   0.50585   0.75000 
C          C       0.64439   0.28928   0.75000 
C          C       0.71072   0.35511   0.75000 
C          C       0.64489   0.35561   0.75000 
C          C       0.35561   0.71072   0.75000 
C          C       0.28928   0.64489   0.75000 
C          C       0.35511   0.64439   0.75000 
C          C       0.62112   0.37993   0.75000 
C          C       0.62007   0.24119   0.75000 
C          C       0.75881   0.37888   0.75000 
C          C       0.37888   0.62007   0.75000 
C          C       0.37993   0.75881   0.75000 
C          C       0.24119   0.62112   0.75000 
C          C       0.57451   0.21825   0.75000 
C          C       0.78175   0.35626   0.75000 
C          C       0.64374   0.42549   0.75000 
C          C       0.42549   0.78175   0.75000 
C          C       0.21825   0.64374   0.75000 
C          C       0.35626   0.57451   0.75000 
C          C       0.55161   0.17297   0.75000 
C          C       0.82703   0.37864   0.75000 
C          C       0.62136   0.44839   0.75000 
C          C       0.44839   0.82703   0.75000 
C          C       0.17297   0.62136   0.75000 
C          C       0.37864   0.55161   0.75000 
C          C       0.57379   0.14966   0.75000 
C          C       0.85034   0.42413   0.75000 
C          C       0.57587   0.42621   0.75000 
C          C       0.42621   0.85034   0.75000 
C          C       0.14966   0.57587   0.75000 
C          C       0.42413   0.57379   0.75000 
C          C       0.61924   0.17245   0.75000 
C          C       0.82755   0.44679   0.75000 
C          C       0.55321   0.38076   0.75000 
C          C       0.38076   0.82755   0.75000 
C          C       0.17245   0.55321   0.75000 
C          C       0.44679   0.61924   0.75000 
C          C       0.64216   0.21772   0.75000 
C          C       0.78228   0.42444   0.75000 
C          C       0.57556   0.35784   0.75000 
C          C       0.35784   0.78228   0.75000 
C          C       0.21772   0.57556   0.75000 
C          C       0.42444   0.64216   0.75000 
C          C       0.55183   0.45010   0.75000 
C          C       0.54990   0.10173   0.75000 
C          C       0.89827   0.44817   0.75000 
C          C       0.44817   0.54990   0.75000 
C          C       0.45010   0.89827   0.75000 
C          C       0.10173   0.55183   0.75000 
C          C       0.49904   0.03772   0.75000 
C          C       0.96228   0.46132   0.75000 
C          C       0.53868   0.50096   0.75000 
C          C       0.50096   0.96228   0.75000 
C          C       0.03772   0.53868   0.75000 
C          C       0.46132   0.49904   0.75000 
C          C       0.53806   0.03882   0.75000 
C          C       0.96118   0.49924   0.75000 
C          C       0.50076   0.46194   0.75000 
C          C       0.46194   0.96118   0.75000 
C          C       0.03882   0.50076   0.75000 
C          C       0.49924   0.53806   0.75000 
C          C       0.45926   0.99899   0.75000 
C          C       0.00101   0.46027   0.75000 
C          C       0.53973   0.54074   0.75000 
C          C       0.54074   0.00101   0.75000 
C          C       0.99899   0.53973   0.75000 
C          C       0.46027   0.45926   0.75000 
H          H       0.55661   0.23542   0.75000 
H          H       0.76458   0.32119   0.75000 
H          H       0.67881   0.44339   0.75000 
H          H       0.44339   0.76458   0.75000 
H          H       0.23542   0.67881   0.75000 
H          H       0.32119   0.55661   0.75000 
H          H       0.51653   0.15605   0.75000 
H          H       0.84395   0.36048   0.75000 
H          H       0.63952   0.48347   0.75000 
H          H       0.48347   0.84395   0.75000 
H          H       0.15605   0.63952   0.75000 
H          H       0.36048   0.51653   0.75000 
H          H       0.63684   0.15493   0.75000 
H          H       0.84507   0.48191   0.75000 
H          H       0.51809   0.36316   0.75000 
H          H       0.36316   0.84507   0.75000 
H          H       0.15493   0.51809   0.75000 
H          H       0.48191   0.63684   0.75000 
H          H       0.67722   0.23447   0.75000 
H          H       0.76553   0.44275   0.75000 
H          H       0.55725   0.32278   0.75000 
H          H       0.32278   0.76553   0.75000 
H          H       0.23447   0.55725   0.75000 
H          H       0.44275   0.67722   0.75000 
H          H       0.42858   0.99815   0.75000 
H          H       0.00185   0.43043   0.75000 
H          H       0.56957   0.57142   0.75000 
H          H       0.57142   0.00185   0.75000 
H          H       0.99815   0.56957   0.75000 
H          H       0.43043   0.42858   0.75000 
