data_Py-23-DHPh_COF
_audit_creation_date              0000-00-00
_audit_creation_method            'LanYouShi'
_symmetry_space_group_name_H-M    'P1'
_cell_length_a                    33.2472992
_cell_length_b                    35.5954018
_cell_length_c                    7.4145999
_cell_angle_alpha                 90.0000000
_cell_angle_beta                  90.0000000
_cell_angle_gamma                 90.0000000
loop_
_atom_site_label
_atom_site_type_symbol
_atom_site_fract_x
_atom_site_fract_y
_atom_site_fract_z
_atom_site_U_iso_or_equiv
_atom_site_adp_type
_atom_site_occupancy
        C1          C  0.4628921  0.9597060 -0.0453174    0.00000       Uiso       1.00
        C2          C  0.9628929  0.4597062 -0.0453174    0.00000       Uiso       1.00
        C3          C  0.5371094  0.0402936 -0.0453174    0.00000       Uiso       1.00
        C4          C  0.0371086  0.5402935 -0.0453174    0.00000       Uiso       1.00
        C5          C  0.4628921  0.0402936 -0.0453174    0.00000       Uiso       1.00
        C6          C  0.9628929  0.5402935 -0.0453174    0.00000       Uiso       1.00
        C7          C  0.5371094  0.9597060 -0.0453174    0.00000       Uiso       1.00
        C8          C  0.0371086  0.4597062 -0.0453174    0.00000       Uiso       1.00
        C9          C  0.4266365  0.0196449 -0.0540556    0.00000       Uiso       1.00
       C10          C  0.9266372  0.5196447 -0.0540556    0.00000       Uiso       1.00
       C11          C  0.5733650  0.9803548 -0.0540556    0.00000       Uiso       1.00
       C12          C  0.0733643  0.4803549 -0.0540556    0.00000       Uiso       1.00
       C13          C  0.4266365  0.9803548 -0.0540556    0.00000       Uiso       1.00
       C14          C  0.9266372  0.4803549 -0.0540556    0.00000       Uiso       1.00
       C15          C  0.5733650  0.0196449 -0.0540556    0.00000       Uiso       1.00
       C16          C  0.0733643  0.5196447 -0.0540556    0.00000       Uiso       1.00
       C17          C  0.4629982  0.0802209 -0.0347885    0.00000       Uiso       1.00
       C18          C  0.9629990  0.5802207 -0.0347885    0.00000       Uiso       1.00
       C19          C  0.5370033  0.9197788 -0.0347885    0.00000       Uiso       1.00
       C20          C  0.0370025  0.4197789 -0.0347885    0.00000       Uiso       1.00
       C21          C  0.4629982  0.9197788 -0.0347885    0.00000       Uiso       1.00
       C22          C  0.9629990  0.4197789 -0.0347885    0.00000       Uiso       1.00
       C23          C  0.5370033  0.0802209 -0.0347885    0.00000       Uiso       1.00
       C24          C  0.0370025  0.5802207 -0.0347885    0.00000       Uiso       1.00
       C25          C  0.4277862  0.1020319 -0.0149792    0.00000       Uiso       1.00
       C26          C  0.9277869  0.6020318 -0.0149792    0.00000       Uiso       1.00
       C27          C  0.5722153  0.8979677 -0.0149792    0.00000       Uiso       1.00
       C28          C  0.0722146  0.3979679 -0.0149792    0.00000       Uiso       1.00
       C29          C  0.4277862  0.8979677 -0.0149792    0.00000       Uiso       1.00
       C30          C  0.9277869  0.3979679 -0.0149792    0.00000       Uiso       1.00
       C31          C  0.5722153  0.1020319 -0.0149792    0.00000       Uiso       1.00
       C32          C  0.0722146  0.6020318 -0.0149792    0.00000       Uiso       1.00
       C33          C  0.4054718  0.0998899  0.1467995    0.00000       Uiso       1.00
       C34          C  0.9054726  0.5998898  0.1467995    0.00000       Uiso       1.00
       C35          C  0.5945297  0.9001098  0.1467995    0.00000       Uiso       1.00
       C36          C  0.0945289  0.4001099  0.1467995    0.00000       Uiso       1.00
       C37          C  0.4054718  0.9001098  0.1467995    0.00000       Uiso       1.00
       C38          C  0.9054726  0.4001099  0.1467995    0.00000       Uiso       1.00
       C39          C  0.5945297  0.0998899  0.1467995    0.00000       Uiso       1.00
       C40          C  0.0945289  0.5998898  0.1467995    0.00000       Uiso       1.00
       C41          C  0.3710440  0.1221910  0.1716769    0.00000       Uiso       1.00
       C42          C  0.8710448  0.6221908  0.1716769    0.00000       Uiso       1.00
       C43          C  0.6289575  0.8778087  0.1716769    0.00000       Uiso       1.00
       C44          C  0.1289568  0.3778088  0.1716769    0.00000       Uiso       1.00
       C45          C  0.3710440  0.8778087  0.1716769    0.00000       Uiso       1.00
       C46          C  0.8710448  0.3778088  0.1716769    0.00000       Uiso       1.00
       C47          C  0.6289575  0.1221910  0.1716769    0.00000       Uiso       1.00
       C48          C  0.1289568  0.6221908  0.1716769    0.00000       Uiso       1.00
       C49          C  0.3580172  0.1474741  0.0363832    0.00000       Uiso       1.00
       C50          C  0.8580180  0.6474739  0.0363832    0.00000       Uiso       1.00
       C51          C  0.6419843  0.8525256  0.0363832    0.00000       Uiso       1.00
       C52          C  0.1419835  0.3525258  0.0363832    0.00000       Uiso       1.00
       C53          C  0.3580172  0.8525256  0.0363832    0.00000       Uiso       1.00
       C54          C  0.8580180  0.3525258  0.0363832    0.00000       Uiso       1.00
       C55          C  0.6419843  0.1474741  0.0363832    0.00000       Uiso       1.00
       C56          C  0.1419835  0.6474739  0.0363832    0.00000       Uiso       1.00
       C57          C  0.3803299  0.1492870 -0.1261965    0.00000       Uiso       1.00
       C58          C  0.8803307  0.6492869 -0.1261965    0.00000       Uiso       1.00
       C59          C  0.6196716  0.8507127 -0.1261965    0.00000       Uiso       1.00
       C60          C  0.1196708  0.3507128 -0.1261965    0.00000       Uiso       1.00
       C61          C  0.3803299  0.8507127 -0.1261965    0.00000       Uiso       1.00
       C62          C  0.8803307  0.3507128 -0.1261965    0.00000       Uiso       1.00
       C63          C  0.6196716  0.1492870 -0.1261965    0.00000       Uiso       1.00
       C64          C  0.1196708  0.6492869 -0.1261965    0.00000       Uiso       1.00
       C65          C  0.4147735  0.1268677 -0.1516510    0.00000       Uiso       1.00
       C66          C  0.9147742  0.6268675 -0.1516510    0.00000       Uiso       1.00
       C67          C  0.5852281  0.8731320 -0.1516510    0.00000       Uiso       1.00
       C68          C  0.0852273  0.3731321 -0.1516510    0.00000       Uiso       1.00
       C69          C  0.4147735  0.8731320 -0.1516510    0.00000       Uiso       1.00
       C70          C  0.9147742  0.3731321 -0.1516510    0.00000       Uiso       1.00
       C71          C  0.5852281  0.1268677 -0.1516510    0.00000       Uiso       1.00
       C72          C  0.0852273  0.6268675 -0.1516510    0.00000       Uiso       1.00
       C73          C  0.3239726  0.1700832  0.0687856    0.00000       Uiso       1.00
       C74          C  0.8239734  0.6700830  0.0687856    0.00000       Uiso       1.00
       C75          C  0.6760290  0.8299165  0.0687856    0.00000       Uiso       1.00
       C76          C  0.1760282  0.3299167  0.0687856    0.00000       Uiso       1.00
       C77          C  0.3239726  0.8299165  0.0687856    0.00000       Uiso       1.00
       C78          C  0.8239734  0.3299167  0.0687856    0.00000       Uiso       1.00
       C79          C  0.6760290  0.1700832  0.0687856    0.00000       Uiso       1.00
       C80          C  0.1760282  0.6700830  0.0687856    0.00000       Uiso       1.00
       C81          C  0.7814606  0.2773102 -0.0322015    0.00000       Uiso       1.00
       C82          C  0.2814599  0.7773100 -0.0322015    0.00000       Uiso       1.00
       C83          C  0.2185408  0.7226894 -0.0322015    0.00000       Uiso       1.00
       C84          C  0.7185416  0.2226896 -0.0322015    0.00000       Uiso       1.00
       C85          C  0.7814606  0.7226894 -0.0322015    0.00000       Uiso       1.00
       C86          C  0.2814599  0.2226896 -0.0322015    0.00000       Uiso       1.00
       C87          C  0.2185408  0.2773102 -0.0322015    0.00000       Uiso       1.00
       C88          C  0.7185416  0.7773100 -0.0322015    0.00000       Uiso       1.00
       C89          C  0.7655533  0.2633818 -0.1951748    0.00000       Uiso       1.00
       C90          C  0.2655526  0.7633817 -0.1951748    0.00000       Uiso       1.00
       C91          C  0.2344482  0.7366179 -0.1951748    0.00000       Uiso       1.00
       C92          C  0.7344490  0.2366180 -0.1951748    0.00000       Uiso       1.00
       C93          C  0.7655533  0.7366179 -0.1951748    0.00000       Uiso       1.00
       C94          C  0.2655526  0.2366180 -0.1951748    0.00000       Uiso       1.00
       C95          C  0.2344482  0.2633818 -0.1951748    0.00000       Uiso       1.00
       C96          C  0.7344490  0.7633817 -0.1951748    0.00000       Uiso       1.00
       C97          C  0.7341431  0.2367855  0.1324037    0.00000       Uiso       1.00
       C98          C  0.2341423  0.7367854  0.1324037    0.00000       Uiso       1.00
       C99          C  0.2658584  0.7632142  0.1324037    0.00000       Uiso       1.00
      C100          C  0.7658592  0.2632143  0.1324037    0.00000       Uiso       1.00
      C101          C  0.7341431  0.7632142  0.1324037    0.00000       Uiso       1.00
      C102          C  0.2341423  0.2632143  0.1324037    0.00000       Uiso       1.00
      C103          C  0.2658584  0.2367855  0.1324037    0.00000       Uiso       1.00
      C104          C  0.7658592  0.7367854  0.1324037    0.00000       Uiso       1.00
        H1          H  0.3993800  0.0328857 -0.0601774    0.00000       Uiso       1.00
        H2          H  0.8993807  0.5328856 -0.0601774    0.00000       Uiso       1.00
        H3          H  0.6006215  0.9671139 -0.0601774    0.00000       Uiso       1.00
        H4          H  0.1006208  0.4671141 -0.0601774    0.00000       Uiso       1.00
        H5          H  0.3993800  0.9671139 -0.0601774    0.00000       Uiso       1.00
        H6          H  0.8993807  0.4671141 -0.0601774    0.00000       Uiso       1.00
        H7          H  0.6006215  0.0328857 -0.0601774    0.00000       Uiso       1.00
        H8          H  0.1006208  0.5328856 -0.0601774    0.00000       Uiso       1.00
        H9          H  0.4142485  0.0822100  0.2484443    0.00000       Uiso       1.00
       H10          H  0.9142492  0.5822098  0.2484443    0.00000       Uiso       1.00
       H11          H  0.5857530  0.9177898  0.2484443    0.00000       Uiso       1.00
       H12          H  0.0857522  0.4177899  0.2484443    0.00000       Uiso       1.00
       H13          H  0.4142485  0.9177898  0.2484443    0.00000       Uiso       1.00
       H14          H  0.9142492  0.4177899  0.2484443    0.00000       Uiso       1.00
       H15          H  0.5857530  0.0822100  0.2484443    0.00000       Uiso       1.00
       H16          H  0.0857522  0.5822098  0.2484443    0.00000       Uiso       1.00
       H17          H  0.3557318  0.1198829  0.2910292    0.00000       Uiso       1.00
       H18          H  0.8557325  0.6198828  0.2910292    0.00000       Uiso       1.00
       H19          H  0.6442698  0.8801167  0.2910292    0.00000       Uiso       1.00
       H20          H  0.1442690  0.3801169  0.2910292    0.00000       Uiso       1.00
       H21          H  0.3557318  0.8801167  0.2910292    0.00000       Uiso       1.00
       H22          H  0.8557325  0.3801169  0.2910292    0.00000       Uiso       1.00
       H23          H  0.6442698  0.1198829  0.2910292    0.00000       Uiso       1.00
       H24          H  0.1442690  0.6198828  0.2910292    0.00000       Uiso       1.00
       H25          H  0.3718514  0.1670283 -0.2278850    0.00000       Uiso       1.00
       H26          H  0.8718522  0.6670282 -0.2278850    0.00000       Uiso       1.00
       H27          H  0.6281501  0.8329713 -0.2278850    0.00000       Uiso       1.00
       H28          H  0.1281493  0.3329715 -0.2278850    0.00000       Uiso       1.00
       H29          H  0.3718514  0.8329713 -0.2278850    0.00000       Uiso       1.00
       H30          H  0.8718522  0.3329715 -0.2278850    0.00000       Uiso       1.00
       H31          H  0.6281501  0.1670283 -0.2278850    0.00000       Uiso       1.00
       H32          H  0.1281493  0.6670282 -0.2278850    0.00000       Uiso       1.00
       H33          H  0.4303467  0.1288711 -0.2703830    0.00000       Uiso       1.00
       H34          H  0.9303474  0.6288709 -0.2703830    0.00000       Uiso       1.00
       H35          H  0.5696548  0.8711286 -0.2703830    0.00000       Uiso       1.00
       H36          H  0.0696541  0.3711287 -0.2703830    0.00000       Uiso       1.00
       H37          H  0.4303467  0.8711286 -0.2703830    0.00000       Uiso       1.00
       H38          H  0.9303474  0.3711287 -0.2703830    0.00000       Uiso       1.00
       H39          H  0.5696548  0.1288711 -0.2703830    0.00000       Uiso       1.00
       H40          H  0.0696541  0.6288709 -0.2703830    0.00000       Uiso       1.00
       H41          H  0.3081256  0.1658685  0.1851579    0.00000       Uiso       1.00
       H42          H  0.8081264  0.6658683  0.1851579    0.00000       Uiso       1.00
       H43          H  0.6918759  0.8341312  0.1851579    0.00000       Uiso       1.00
       H44          H  0.1918752  0.3341313  0.1851579    0.00000       Uiso       1.00
       H45          H  0.3081256  0.8341312  0.1851579    0.00000       Uiso       1.00
       H46          H  0.8081264  0.3341313  0.1851579    0.00000       Uiso       1.00
       H47          H  0.6918759  0.1658685  0.1851579    0.00000       Uiso       1.00
       H48          H  0.1918752  0.6658683  0.1851579    0.00000       Uiso       1.00
       H49          H  0.7764868  0.2728193 -0.3158569    0.00000       Uiso       1.00
       H50          H  0.2764860  0.7728191 -0.3158569    0.00000       Uiso       1.00
       H51          H  0.2235147  0.7271804 -0.3158569    0.00000       Uiso       1.00
       H52          H  0.7235155  0.2271806 -0.3158569    0.00000       Uiso       1.00
       H53          H  0.7764868  0.7271804 -0.3158569    0.00000       Uiso       1.00
       H54          H  0.2764860  0.2271806 -0.3158569    0.00000       Uiso       1.00
       H55          H  0.2235147  0.2728193 -0.3158569    0.00000       Uiso       1.00
       H56          H  0.7235155  0.7728191 -0.3158569    0.00000       Uiso       1.00
        O1          O  0.7184986  0.2258321  0.2925694    0.00000       Uiso       1.00
        O2          O  0.2184979  0.7258320  0.2925694    0.00000       Uiso       1.00
        O3          O  0.2815028  0.7741675  0.2925694    0.00000       Uiso       1.00
        O4          O  0.7815036  0.2741677  0.2925694    0.00000       Uiso       1.00
        O5          O  0.7184986  0.7741675  0.2925694    0.00000       Uiso       1.00
        O6          O  0.2184979  0.2741677  0.2925694    0.00000       Uiso       1.00
        O7          O  0.2815028  0.2258321  0.2925694    0.00000       Uiso       1.00
        O8          O  0.7815036  0.7258320  0.2925694    0.00000       Uiso       1.00
        N1          N  0.3113836  0.1969205 -0.0475314    0.00000       Uiso       1.00
        N2          N  0.8113843  0.6969204 -0.0475314    0.00000       Uiso       1.00
        N3          N  0.6886179  0.8030791 -0.0475314    0.00000       Uiso       1.00
        N4          N  0.1886172  0.3030793 -0.0475314    0.00000       Uiso       1.00
        N5          N  0.3113836  0.8030791 -0.0475314    0.00000       Uiso       1.00
        N6          N  0.8113843  0.3030793 -0.0475314    0.00000       Uiso       1.00
        N7          N  0.6886179  0.1969205 -0.0475314    0.00000       Uiso       1.00
        N8          N  0.1886172  0.6969204 -0.0475314    0.00000       Uiso       1.00
      C105          C  0.5000008  0.0995272 -0.0327739    0.00000       Uiso       1.00
      C106          C  0.0000000  0.5995270 -0.0327739    0.00000       Uiso       1.00
      C107          C  0.5000008  0.9004725 -0.0327739    0.00000       Uiso       1.00
      C108          C  0.0000000  0.4004727 -0.0327739    0.00000       Uiso       1.00
      C109          C  0.5000008  0.9798721 -0.0468777    0.00000       Uiso       1.00
      C110          C  0.0000000  0.4798723 -0.0468777    0.00000       Uiso       1.00
      C111          C  0.5000008  0.0201276 -0.0468777    0.00000       Uiso       1.00
      C112          C  0.0000000  0.5201274 -0.0468777    0.00000       Uiso       1.00
       H57          H  0.5000008  0.1283374 -0.0246124    0.00000       Uiso       1.00
       H58          H  0.0000000  0.6283372 -0.0246124    0.00000       Uiso       1.00
       H59          H  0.5000008  0.8716623 -0.0246124    0.00000       Uiso       1.00
       H60          H  0.0000000  0.3716624 -0.0246124    0.00000       Uiso       1.00
       H61          H  0.2711211  0.7640494  0.4060413    0.00000       Uiso       1.00
       H62          H  0.7711219  0.2640496  0.4060413    0.00000       Uiso       1.00
       H63          H  0.7288804  0.2359502  0.4060413    0.00000       Uiso       1.00
       H64          H  0.2288797  0.7359501  0.4060413    0.00000       Uiso       1.00
       H65          H  0.2711211  0.2359502  0.4060413    0.00000       Uiso       1.00
       H66          H  0.7711219  0.7359501  0.4060413    0.00000       Uiso       1.00
       H67          H  0.7288804  0.7640494  0.4060413    0.00000       Uiso       1.00
       H68          H  0.2288797  0.2640496  0.4060413    0.00000       Uiso       1.00
