data_crystal
 
_cell_length_a    33.24730
_cell_length_b    35.59540
_cell_length_c    7.41460
_cell_angle_alpha 90.00000
_cell_angle_beta  90.00000
_cell_angle_gamma 90.00000
 
_symmetry_space_group_name_Hall 'P 1'
_symmetry_space_group_name_H-M  'P 1'
 
loop_
_symmetry_equiv_pos_as_xyz
 'x,y,z' 
 
loop_
_atom_site_label
_atom_site_type_symbol
_atom_site_fract_x
_atom_site_fract_y
_atom_site_fract_z
_atom_site_charge
C          C       0.46289   0.95971  -0.04532   0.0000000000
C          C       0.96289   0.45971  -0.04532   0.0000000000
C          C       0.53711   0.04029  -0.04532   0.0000000000
C          C       0.03711   0.54029  -0.04532   0.0000000000
C          C       0.46289   0.04029  -0.04532   0.0000000000
C          C       0.96289   0.54029  -0.04532   0.0000000000
C          C       0.53711   0.95971  -0.04532   0.0000000000
C          C       0.03711   0.45971  -0.04532   0.0000000000
C          C       0.42664   0.01964  -0.05406   0.0000000000
C          C       0.92664   0.51964  -0.05406   0.0000000000
C          C       0.57337   0.98035  -0.05406   0.0000000000
C          C       0.07336   0.48035  -0.05406   0.0000000000
C          C       0.42664   0.98035  -0.05406   0.0000000000
C          C       0.92664   0.48035  -0.05406   0.0000000000
C          C       0.57337   0.01964  -0.05406   0.0000000000
C          C       0.07336   0.51964  -0.05406   0.0000000000
C          C       0.46300   0.08022  -0.03479   0.0000000000
C          C       0.96300   0.58022  -0.03479   0.0000000000
C          C       0.53700   0.91978  -0.03479   0.0000000000
C          C       0.03700   0.41978  -0.03479   0.0000000000
C          C       0.46300   0.91978  -0.03479   0.0000000000
C          C       0.96300   0.41978  -0.03479   0.0000000000
C          C       0.53700   0.08022  -0.03479   0.0000000000
C          C       0.03700   0.58022  -0.03479   0.0000000000
C          C       0.42779   0.10203  -0.01498   0.0000000000
C          C       0.92779   0.60203  -0.01498   0.0000000000
C          C       0.57222   0.89797  -0.01498   0.0000000000
C          C       0.07221   0.39797  -0.01498   0.0000000000
C          C       0.42779   0.89797  -0.01498   0.0000000000
C          C       0.92779   0.39797  -0.01498   0.0000000000
C          C       0.57222   0.10203  -0.01498   0.0000000000
C          C       0.07221   0.60203  -0.01498   0.0000000000
C          C       0.40547   0.09989   0.14680   0.0000000000
C          C       0.90547   0.59989   0.14680   0.0000000000
C          C       0.59453   0.90011   0.14680   0.0000000000
C          C       0.09453   0.40011   0.14680   0.0000000000
C          C       0.40547   0.90011   0.14680   0.0000000000
C          C       0.90547   0.40011   0.14680   0.0000000000
C          C       0.59453   0.09989   0.14680   0.0000000000
C          C       0.09453   0.59989   0.14680   0.0000000000
C          C       0.37104   0.12219   0.17168   0.0000000000
C          C       0.87104   0.62219   0.17168   0.0000000000
C          C       0.62896   0.87781   0.17168   0.0000000000
C          C       0.12896   0.37781   0.17168   0.0000000000
C          C       0.37104   0.87781   0.17168   0.0000000000
C          C       0.87104   0.37781   0.17168   0.0000000000
C          C       0.62896   0.12219   0.17168   0.0000000000
C          C       0.12896   0.62219   0.17168   0.0000000000
C          C       0.35802   0.14747   0.03638   0.0000000000
C          C       0.85802   0.64747   0.03638   0.0000000000
C          C       0.64198   0.85253   0.03638   0.0000000000
C          C       0.14198   0.35253   0.03638   0.0000000000
C          C       0.35802   0.85253   0.03638   0.0000000000
C          C       0.85802   0.35253   0.03638   0.0000000000
C          C       0.64198   0.14747   0.03638   0.0000000000
C          C       0.14198   0.64747   0.03638   0.0000000000
C          C       0.38033   0.14929  -0.12620   0.0000000000
C          C       0.88033   0.64929  -0.12620   0.0000000000
C          C       0.61967   0.85071  -0.12620   0.0000000000
C          C       0.11967   0.35071  -0.12620   0.0000000000
C          C       0.38033   0.85071  -0.12620   0.0000000000
C          C       0.88033   0.35071  -0.12620   0.0000000000
C          C       0.61967   0.14929  -0.12620   0.0000000000
C          C       0.11967   0.64929  -0.12620   0.0000000000
C          C       0.41477   0.12687  -0.15165   0.0000000000
C          C       0.91477   0.62687  -0.15165   0.0000000000
C          C       0.58523   0.87313  -0.15165   0.0000000000
C          C       0.08523   0.37313  -0.15165   0.0000000000
C          C       0.41477   0.87313  -0.15165   0.0000000000
C          C       0.91477   0.37313  -0.15165   0.0000000000
C          C       0.58523   0.12687  -0.15165   0.0000000000
C          C       0.08523   0.62687  -0.15165   0.0000000000
C          C       0.32397   0.17008   0.06879   0.0000000000
C          C       0.82397   0.67008   0.06879   0.0000000000
C          C       0.67603   0.82992   0.06879   0.0000000000
C          C       0.17603   0.32992   0.06879   0.0000000000
C          C       0.32397   0.82992   0.06879   0.0000000000
C          C       0.82397   0.32992   0.06879   0.0000000000
C          C       0.67603   0.17008   0.06879   0.0000000000
C          C       0.17603   0.67008   0.06879   0.0000000000
C          C       0.78146   0.27731  -0.03220   0.0000000000
C          C       0.28146   0.77731  -0.03220   0.0000000000
C          C       0.21854   0.72269  -0.03220   0.0000000000
C          C       0.71854   0.22269  -0.03220   0.0000000000
C          C       0.78146   0.72269  -0.03220   0.0000000000
C          C       0.28146   0.22269  -0.03220   0.0000000000
C          C       0.21854   0.27731  -0.03220   0.0000000000
C          C       0.71854   0.77731  -0.03220   0.0000000000
C          C       0.76555   0.26338  -0.19517   0.0000000000
C          C       0.26555   0.76338  -0.19517   0.0000000000
C          C       0.23445   0.73662  -0.19517   0.0000000000
C          C       0.73445   0.23662  -0.19517   0.0000000000
C          C       0.76555   0.73662  -0.19517   0.0000000000
C          C       0.26555   0.23662  -0.19517   0.0000000000
C          C       0.23445   0.26338  -0.19517   0.0000000000
C          C       0.73445   0.76338  -0.19517   0.0000000000
C          C       0.73414   0.23679   0.13240   0.0000000000
C          C       0.23414   0.73679   0.13240   0.0000000000
C          C       0.26586   0.76321   0.13240   0.0000000000
C          C       0.76586   0.26321   0.13240   0.0000000000
C          C       0.73414   0.76321   0.13240   0.0000000000
C          C       0.23414   0.26321   0.13240   0.0000000000
C          C       0.26586   0.23679   0.13240   0.0000000000
C          C       0.76586   0.73679   0.13240   0.0000000000
H          H       0.39938   0.03289  -0.06018   0.0000000000
H          H       0.89938   0.53289  -0.06018   0.0000000000
H          H       0.60062   0.96711  -0.06018   0.0000000000
H          H       0.10062   0.46711  -0.06018   0.0000000000
H          H       0.39938   0.96711  -0.06018   0.0000000000
H          H       0.89938   0.46711  -0.06018   0.0000000000
H          H       0.60062   0.03289  -0.06018   0.0000000000
H          H       0.10062   0.53289  -0.06018   0.0000000000
H          H       0.41425   0.08221   0.24844   0.0000000000
H          H       0.91425   0.58221   0.24844   0.0000000000
H          H       0.58575   0.91779   0.24844   0.0000000000
H          H       0.08575   0.41779   0.24844   0.0000000000
H          H       0.41425   0.91779   0.24844   0.0000000000
H          H       0.91425   0.41779   0.24844   0.0000000000
H          H       0.58575   0.08221   0.24844   0.0000000000
H          H       0.08575   0.58221   0.24844   0.0000000000
H          H       0.35573   0.11988   0.29103   0.0000000000
H          H       0.85573   0.61988   0.29103   0.0000000000
H          H       0.64427   0.88012   0.29103   0.0000000000
H          H       0.14427   0.38012   0.29103   0.0000000000
H          H       0.35573   0.88012   0.29103   0.0000000000
H          H       0.85573   0.38012   0.29103   0.0000000000
H          H       0.64427   0.11988   0.29103   0.0000000000
H          H       0.14427   0.61988   0.29103   0.0000000000
H          H       0.37185   0.16703  -0.22789   0.0000000000
H          H       0.87185   0.66703  -0.22789   0.0000000000
H          H       0.62815   0.83297  -0.22789   0.0000000000
H          H       0.12815   0.33297  -0.22789   0.0000000000
H          H       0.37185   0.83297  -0.22789   0.0000000000
H          H       0.87185   0.33297  -0.22789   0.0000000000
H          H       0.62815   0.16703  -0.22789   0.0000000000
H          H       0.12815   0.66703  -0.22789   0.0000000000
H          H       0.43035   0.12887  -0.27038   0.0000000000
H          H       0.93035   0.62887  -0.27038   0.0000000000
H          H       0.56965   0.87113  -0.27038   0.0000000000
H          H       0.06965   0.37113  -0.27038   0.0000000000
H          H       0.43035   0.87113  -0.27038   0.0000000000
H          H       0.93035   0.37113  -0.27038   0.0000000000
H          H       0.56965   0.12887  -0.27038   0.0000000000
H          H       0.06965   0.62887  -0.27038   0.0000000000
H          H       0.30813   0.16587   0.18516   0.0000000000
H          H       0.80813   0.66587   0.18516   0.0000000000
H          H       0.69188   0.83413   0.18516   0.0000000000
H          H       0.19188   0.33413   0.18516   0.0000000000
H          H       0.30813   0.83413   0.18516   0.0000000000
H          H       0.80813   0.33413   0.18516   0.0000000000
H          H       0.69188   0.16587   0.18516   0.0000000000
H          H       0.19188   0.66587   0.18516   0.0000000000
H          H       0.77649   0.27282  -0.31586   0.0000000000
H          H       0.27649   0.77282  -0.31586   0.0000000000
H          H       0.22351   0.72718  -0.31586   0.0000000000
H          H       0.72352   0.22718  -0.31586   0.0000000000
H          H       0.77649   0.72718  -0.31586   0.0000000000
H          H       0.27649   0.22718  -0.31586   0.0000000000
H          H       0.22351   0.27282  -0.31586   0.0000000000
H          H       0.72352   0.77282  -0.31586   0.0000000000
O          O       0.71850   0.22583   0.29257   0.0000000000
O          O       0.21850   0.72583   0.29257   0.0000000000
O          O       0.28150   0.77417   0.29257   0.0000000000
O          O       0.78150   0.27417   0.29257   0.0000000000
O          O       0.71850   0.77417   0.29257   0.0000000000
O          O       0.21850   0.27417   0.29257   0.0000000000
O          O       0.28150   0.22583   0.29257   0.0000000000
O          O       0.78150   0.72583   0.29257   0.0000000000
N          N       0.31138   0.19692  -0.04753   0.0000000000
N          N       0.81138   0.69692  -0.04753   0.0000000000
N          N       0.68862   0.80308  -0.04753   0.0000000000
N          N       0.18862   0.30308  -0.04753   0.0000000000
N          N       0.31138   0.80308  -0.04753   0.0000000000
N          N       0.81138   0.30308  -0.04753   0.0000000000
N          N       0.68862   0.19692  -0.04753   0.0000000000
N          N       0.18862   0.69692  -0.04753   0.0000000000
C          C       0.50000   0.09953  -0.03277   0.0000000000
C          C       0.00000   0.59953  -0.03277   0.0000000000
C          C       0.50000   0.90047  -0.03277   0.0000000000
C          C       0.00000   0.40047  -0.03277   0.0000000000
C          C       0.50000   0.97987  -0.04688   0.0000000000
C          C       0.00000   0.47987  -0.04688   0.0000000000
C          C       0.50000   0.02013  -0.04688   0.0000000000
C          C       0.00000   0.52013  -0.04688   0.0000000000
H          H       0.50000   0.12834  -0.02461   0.0000000000
H          H       0.00000   0.62834  -0.02461   0.0000000000
H          H       0.50000   0.87166  -0.02461   0.0000000000
H          H       0.00000   0.37166  -0.02461   0.0000000000
H          H       0.27112   0.76405   0.40604   0.0000000000
H          H       0.77112   0.26405   0.40604   0.0000000000
H          H       0.72888   0.23595   0.40604   0.0000000000
H          H       0.22888   0.73595   0.40604   0.0000000000
H          H       0.27112   0.23595   0.40604   0.0000000000
H          H       0.77112   0.73595   0.40604   0.0000000000
H          H       0.72888   0.76405   0.40604   0.0000000000
H          H       0.22888   0.26405   0.40604   0.0000000000
