data_crystal
 
_cell_length_a    25.18900
_cell_length_b    25.18900
_cell_length_c    6.55300
_cell_angle_alpha 90.00000
_cell_angle_beta  90.00000
_cell_angle_gamma 120.00000
 
_space_group_name_Hall 'P 1'
_space_group_name_H-M_alt  'P 1'
 
loop_
_symmetry_equiv_pos_as_xyz
 'x,y,z' 
 
loop_
_atom_site_label
_atom_site_type_symbol
_atom_site_fract_x
_atom_site_fract_y
_atom_site_fract_z
O          O       0.22343   0.16610   0.75000 
O          O       0.83390   0.05733   0.75000 
O          O       0.94267   0.77657   0.75000 
O          O       0.77657   0.83390   0.25000 
O          O       0.16610   0.94267   0.25000 
O          O       0.05733   0.22343   0.25000 
O          O       0.16610   0.22343   0.25000 
O          O       0.05733   0.83390   0.25000 
O          O       0.77657   0.94267   0.25000 
O          O       0.83390   0.77657   0.75000 
O          O       0.94267   0.16610   0.75000 
O          O       0.22343   0.05733   0.75000 
C          C       0.27775   0.16690   0.75000 
C          C       0.83310   0.11085   0.75000 
C          C       0.88915   0.72225   0.75000 
C          C       0.72225   0.83310   0.25000 
C          C       0.16690   0.88915   0.25000 
C          C       0.11085   0.27775   0.25000 
C          C       0.16690   0.27775   0.25000 
C          C       0.11085   0.83310   0.25000 
C          C       0.72225   0.88915   0.25000 
C          C       0.83310   0.72225   0.75000 
C          C       0.88915   0.16690   0.75000 
C          C       0.27775   0.11085   0.75000 
C          C       0.33318   0.22254   0.75000 
C          C       0.77746   0.11064   0.75000 
C          C       0.88936   0.66682   0.75000 
C          C       0.66682   0.77746   0.25000 
C          C       0.22254   0.88936   0.25000 
C          C       0.11064   0.33318   0.25000 
C          C       0.22254   0.33318   0.25000 
C          C       0.11064   0.77746   0.25000 
C          C       0.66682   0.88936   0.25000 
C          C       0.77746   0.66682   0.75000 
C          C       0.88936   0.22254   0.75000 
C          C       0.33318   0.11064   0.75000 
C          C       0.33317   0.26555   0.75000 
C          C       0.73445   0.06762   0.75000 
C          C       0.93238   0.66683   0.75000 
C          C       0.66683   0.73445   0.25000 
C          C       0.26555   0.93238   0.25000 
C          C       0.06762   0.33317   0.25000 
C          C       0.26555   0.33317   0.25000 
C          C       0.06762   0.73445   0.25000 
C          C       0.66683   0.93238   0.25000 
C          C       0.73445   0.66683   0.75000 
C          C       0.93238   0.26555   0.75000 
C          C       0.33317   0.06762   0.75000 
C          C       0.38863   0.22234   0.75000 
C          C       0.77766   0.16629   0.75000 
C          C       0.83371   0.61137   0.75000 
C          C       0.61137   0.77766   0.25000 
C          C       0.22234   0.83371   0.25000 
C          C       0.16629   0.38863   0.25000 
C          C       0.22234   0.38863   0.25000 
C          C       0.16629   0.77766   0.25000 
C          C       0.61137   0.83371   0.25000 
C          C       0.77766   0.61137   0.75000 
C          C       0.83371   0.22234   0.75000 
C          C       0.38863   0.16629   0.75000 
O          O       0.44298   0.27587   0.75000 
O          O       0.72413   0.16711   0.75000 
O          O       0.83289   0.55702   0.75000 
O          O       0.55702   0.72413   0.25000 
O          O       0.27587   0.83289   0.25000 
O          O       0.16711   0.44298   0.25000 
O          O       0.27587   0.44298   0.25000 
O          O       0.16711   0.72413   0.25000 
O          O       0.55702   0.83289   0.25000 
O          O       0.72413   0.55702   0.75000 
O          O       0.83289   0.27587   0.75000 
O          O       0.44298   0.16711   0.75000 
C          C       0.49724   0.27633   0.75000 
C          C       0.72367   0.22091   0.75000 
C          C       0.77909   0.50276   0.75000 
C          C       0.50276   0.72367   0.25000 
C          C       0.27633   0.77909   0.25000 
C          C       0.22091   0.49724   0.25000 
C          C       0.27633   0.49724   0.25000 
C          C       0.22091   0.72367   0.25000 
C          C       0.50276   0.77909   0.25000 
C          C       0.72367   0.50276   0.75000 
C          C       0.77909   0.27633   0.75000 
C          C       0.49724   0.22091   0.75000 
C          C       0.55244   0.33148   0.75000 
C          C       0.66852   0.22096   0.75000 
C          C       0.77904   0.44756   0.75000 
C          C       0.44756   0.66852   0.25000 
C          C       0.33148   0.77904   0.25000 
C          C       0.22096   0.55244   0.25000 
C          C       0.33148   0.55244   0.25000 
C          C       0.22096   0.66852   0.25000 
C          C       0.44756   0.77904   0.25000 
C          C       0.66852   0.44756   0.75000 
C          C       0.77904   0.33148   0.75000 
C          C       0.55244   0.22096   0.75000 
C          C       0.60992   0.33335   0.75000 
C          C       0.66665   0.27657   0.75000 
C          C       0.72343   0.39008   0.75000 
C          C       0.39008   0.66665   0.25000 
C          C       0.33335   0.72343   0.25000 
C          C       0.27657   0.60992   0.25000 
C          C       0.33335   0.60992   0.25000 
C          C       0.27657   0.66665   0.25000 
C          C       0.39008   0.72343   0.25000 
C          C       0.66665   0.39008   0.75000 
C          C       0.72343   0.33335   0.75000 
C          C       0.60992   0.27657   0.75000 
C          C       0.16922   0.11231   0.75000 
C          C       0.88769   0.05691   0.75000 
C          C       0.94309   0.83078   0.75000 
C          C       0.83078   0.88769   0.25000 
C          C       0.11231   0.94309   0.25000 
C          C       0.05691   0.16922   0.25000 
C          C       0.11231   0.16922   0.25000 
C          C       0.05691   0.88769   0.25000 
C          C       0.83078   0.94309   0.25000 
C          C       0.88769   0.83078   0.75000 
C          C       0.94309   0.11231   0.75000 
C          C       0.16922   0.05691   0.75000 
C          C       0.11410   0.11229   0.75000 
C          C       0.88771   0.00181   0.75000 
C          C       0.99819   0.88590   0.75000 
C          C       0.88590   0.88771   0.25000 
C          C       0.11229   0.99819   0.25000 
C          C       0.00181   0.11410   0.25000 
C          C       0.11229   0.11410   0.25000 
C          C       0.00181   0.88771   0.25000 
C          C       0.88590   0.99819   0.25000 
C          C       0.88771   0.88590   0.75000 
C          C       0.99819   0.11229   0.75000 
C          C       0.11410   0.00181   0.75000 
C          C       0.00003   0.05672   0.75000 
C          C       0.94328   0.94331   0.75000 
C          C       0.05669   0.99997   0.75000 
C          C       0.99997   0.94328   0.25000 
C          C       0.05672   0.05669   0.25000 
C          C       0.94331   0.00003   0.25000 
C          C       0.05672   0.00003   0.25000 
C          C       0.94331   0.94328   0.25000 
C          C       0.99997   0.05669   0.25000 
C          C       0.94328   0.99997   0.75000 
C          C       0.05669   0.05672   0.75000 
C          C       0.00003   0.94331   0.75000 
H          H       0.11858   0.15700   0.75000 
H          H       0.84300   0.96158   0.75000 
H          H       0.03842   0.88142   0.75000 
H          H       0.88142   0.84300   0.25000 
H          H       0.15700   0.03842   0.25000 
H          H       0.96158   0.11858   0.25000 
H          H       0.15700   0.11858   0.25000 
H          H       0.96158   0.84300   0.25000 
H          H       0.88142   0.03842   0.25000 
H          H       0.84300   0.88142   0.75000 
H          H       0.03842   0.15700   0.75000 
H          H       0.11858   0.96158   0.75000 
H          H       0.54800   0.37173   0.75000 
H          H       0.62827   0.17627   0.75000 
H          H       0.82373   0.45200   0.75000 
H          H       0.45200   0.62827   0.25000 
H          H       0.37173   0.82373   0.25000 
H          H       0.17627   0.54800   0.25000 
H          H       0.37173   0.54800   0.25000 
H          H       0.17627   0.62827   0.25000 
H          H       0.45200   0.82373   0.25000 
H          H       0.62827   0.45200   0.75000 
H          H       0.82373   0.37173   0.75000 
H          H       0.54800   0.17627   0.75000 
