data_crystal
 
_cell_length_a    25.18400
_cell_length_b    25.18400
_cell_length_c    6.87800
_cell_angle_alpha 90.00000
_cell_angle_beta  90.00000
_cell_angle_gamma 120.00000
 
_symmetry_space_group_name_Hall 'P 1'
_symmetry_space_group_name_H-M  'P 1'
 
loop_
_symmetry_equiv_pos_as_xyz
 'x,y,z' 
 
loop_
_atom_site_label
_atom_site_type_symbol
_atom_site_fract_x
_atom_site_fract_y
_atom_site_fract_z
C          C       0.00000   0.55593   0.25000 
C          C       0.44407   0.44407   0.25000 
C          C       0.55593   0.00000   0.25000 
C          C       0.00000   0.44407   0.25000 
C          C       0.55593   0.55593   0.25000 
C          C       0.44407   0.00000   0.25000 
C          C       0.49970   0.05543   0.25000 
C          C       0.94457   0.44427   0.25000 
C          C       0.55573   0.50030   0.25000 
C          C       0.50030   0.94457   0.25000 
C          C       0.05543   0.55573   0.25000 
C          C       0.44427   0.49970   0.25000 
C          C       0.94457   0.50030   0.25000 
C          C       0.55573   0.05543   0.25000 
C          C       0.49970   0.44427   0.25000 
C          C       0.05543   0.49970   0.25000 
C          C       0.44427   0.94457   0.25000 
C          C       0.50030   0.55573   0.25000 
C          C       0.60971   0.16401   0.25000 
C          C       0.83599   0.44570   0.25000 
C          C       0.55430   0.39029   0.25000 
C          C       0.39029   0.83599   0.25000 
C          C       0.16401   0.55430   0.25000 
C          C       0.44570   0.60971   0.25000 
C          C       0.83599   0.39029   0.25000 
C          C       0.55430   0.16401   0.25000 
C          C       0.60971   0.44570   0.25000 
C          C       0.16401   0.60971   0.25000 
C          C       0.44570   0.83599   0.25000 
C          C       0.39029   0.55430   0.25000 
C          C       0.66483   0.21917   0.25000 
C          C       0.78083   0.44566   0.25000 
C          C       0.55434   0.33517   0.25000 
C          C       0.33517   0.78083   0.25000 
C          C       0.21917   0.55434   0.25000 
C          C       0.44566   0.66483   0.25000 
C          C       0.78083   0.33517   0.25000 
C          C       0.55434   0.21917   0.25000 
C          C       0.66483   0.44566   0.25000 
C          C       0.21917   0.66483   0.25000 
C          C       0.44566   0.78083   0.25000 
C          C       0.33517   0.55434   0.25000 
C          C       0.66669   0.27661   0.25000 
C          C       0.72339   0.39008   0.25000 
C          C       0.60992   0.33331   0.25000 
C          C       0.33331   0.72339   0.25000 
C          C       0.27661   0.60992   0.25000 
C          C       0.39008   0.66669   0.25000 
C          C       0.72339   0.33331   0.25000 
C          C       0.60992   0.27661   0.25000 
C          C       0.66669   0.39008   0.25000 
C          C       0.27661   0.66669   0.25000 
C          C       0.39008   0.72339   0.25000 
C          C       0.33331   0.60992   0.25000 
O          O       0.60927   0.10977   0.25000 
O          O       0.89023   0.49950   0.25000 
O          O       0.50050   0.39073   0.25000 
O          O       0.39073   0.89023   0.25000 
O          O       0.10977   0.50050   0.25000 
O          O       0.49950   0.60927   0.25000 
O          O       0.89023   0.39073   0.25000 
O          O       0.50050   0.10977   0.25000 
O          O       0.60927   0.49950   0.25000 
O          O       0.10977   0.60927   0.25000 
O          O       0.49950   0.89023   0.25000 
O          O       0.39073   0.50050   0.25000 
H          H       0.70506   0.49035   0.25000 
H          H       0.50965   0.21471   0.25000 
H          H       0.78529   0.29494   0.25000 
H          H       0.29494   0.50965   0.25000 
H          H       0.49035   0.78529   0.25000 
H          H       0.21471   0.70506   0.25000 
H          H       0.50965   0.29494   0.25000 
H          H       0.78529   0.49035   0.25000 
H          H       0.70506   0.21471   0.25000 
H          H       0.49035   0.70506   0.25000 
H          H       0.21471   0.50965   0.25000 
H          H       0.29494   0.78529   0.25000 
H          H       0.00000   0.40105   0.25000 
H          H       0.59895   0.59895   0.25000 
H          H       0.40105   0.00000   0.25000 
H          H       0.00000   0.59895   0.25000 
H          H       0.40105   0.40105   0.25000 
H          H       0.59895   0.00000   0.25000 
C          C       0.00000   0.55593   0.75000 
C          C       0.44407   0.44407   0.75000 
C          C       0.55593   0.00000   0.75000 
C          C       0.00000   0.44407   0.75000 
C          C       0.55593   0.55593   0.75000 
C          C       0.44407   0.00000   0.75000 
C          C       0.49970   0.05543   0.75000 
C          C       0.94457   0.44427   0.75000 
C          C       0.55573   0.50030   0.75000 
C          C       0.50030   0.94457   0.75000 
C          C       0.05543   0.55573   0.75000 
C          C       0.44427   0.49970   0.75000 
C          C       0.94457   0.50030   0.75000 
C          C       0.55573   0.05543   0.75000 
C          C       0.49970   0.44427   0.75000 
C          C       0.05543   0.49970   0.75000 
C          C       0.44427   0.94457   0.75000 
C          C       0.50030   0.55573   0.75000 
C          C       0.60971   0.16401   0.75000 
C          C       0.83599   0.44570   0.75000 
C          C       0.55430   0.39029   0.75000 
C          C       0.39029   0.83599   0.75000 
C          C       0.16401   0.55430   0.75000 
C          C       0.44570   0.60971   0.75000 
C          C       0.83599   0.39029   0.75000 
C          C       0.55430   0.16401   0.75000 
C          C       0.60971   0.44570   0.75000 
C          C       0.16401   0.60971   0.75000 
C          C       0.44570   0.83599   0.75000 
C          C       0.39029   0.55430   0.75000 
C          C       0.66483   0.21917   0.75000 
C          C       0.78083   0.44566   0.75000 
C          C       0.55434   0.33517   0.75000 
C          C       0.33517   0.78083   0.75000 
C          C       0.21917   0.55434   0.75000 
C          C       0.44566   0.66483   0.75000 
C          C       0.78083   0.33517   0.75000 
C          C       0.55434   0.21917   0.75000 
C          C       0.66483   0.44566   0.75000 
C          C       0.21917   0.66483   0.75000 
C          C       0.44566   0.78083   0.75000 
C          C       0.33517   0.55434   0.75000 
C          C       0.66669   0.27661   0.75000 
C          C       0.72339   0.39008   0.75000 
C          C       0.60992   0.33331   0.75000 
C          C       0.33331   0.72339   0.75000 
C          C       0.27661   0.60992   0.75000 
C          C       0.39008   0.66669   0.75000 
C          C       0.72339   0.33331   0.75000 
C          C       0.60992   0.27661   0.75000 
C          C       0.66669   0.39008   0.75000 
C          C       0.27661   0.66669   0.75000 
C          C       0.39008   0.72339   0.75000 
C          C       0.33331   0.60992   0.75000 
O          O       0.60927   0.10977   0.75000 
O          O       0.89023   0.49950   0.75000 
O          O       0.50050   0.39073   0.75000 
O          O       0.39073   0.89023   0.75000 
O          O       0.10977   0.50050   0.75000 
O          O       0.49950   0.60927   0.75000 
O          O       0.89023   0.39073   0.75000 
O          O       0.50050   0.10977   0.75000 
O          O       0.60927   0.49950   0.75000 
O          O       0.10977   0.60927   0.75000 
O          O       0.49950   0.89023   0.75000 
O          O       0.39073   0.50050   0.75000 
H          H       0.70506   0.49035   0.75000 
H          H       0.50965   0.21471   0.75000 
H          H       0.78529   0.29494   0.75000 
H          H       0.29494   0.50965   0.75000 
H          H       0.49035   0.78529   0.75000 
H          H       0.21471   0.70506   0.75000 
H          H       0.50965   0.29494   0.75000 
H          H       0.78529   0.49035   0.75000 
H          H       0.70506   0.21471   0.75000 
H          H       0.49035   0.70506   0.75000 
H          H       0.21471   0.50965   0.75000 
H          H       0.29494   0.78529   0.75000 
H          H       0.00000   0.40105   0.75000 
H          H       0.59895   0.59895   0.75000 
H          H       0.40105   0.00000   0.75000 
H          H       0.00000   0.59895   0.75000 
H          H       0.40105   0.40105   0.75000 
H          H       0.59895   0.00000   0.75000 
