data_crystal
 
_cell_length_a    32.00500
_cell_length_b    32.00500
_cell_length_c    6.88000
_cell_angle_alpha 90.00000
_cell_angle_beta  90.00000
_cell_angle_gamma 120.00000
 
_symmetry_space_group_name_Hall 'P 1'
_symmetry_space_group_name_H-M  'P 1'
 
loop_
_symmetry_equiv_pos_as_xyz
 'x,y,z' 
 
loop_
_atom_site_label
_atom_site_type_symbol
_atom_site_fract_x
_atom_site_fract_y
_atom_site_fract_z
N          N       0.60062   0.15279   0.25000 
N          N       0.84721   0.44783   0.25000 
N          N       0.55217   0.39938   0.25000 
N          N       0.39938   0.84721   0.25000 
N          N       0.15279   0.55217   0.25000 
N          N       0.44783   0.60062   0.25000 
C          C       0.60689   0.19807   0.25000 
C          C       0.80193   0.40882   0.25000 
C          C       0.59118   0.39311   0.25000 
C          C       0.39311   0.80193   0.25000 
C          C       0.19807   0.59118   0.25000 
C          C       0.40882   0.60689   0.25000 
C          C       0.65295   0.23816   0.25000 
C          C       0.76184   0.41479   0.25000 
C          C       0.58521   0.34705   0.25000 
C          C       0.34705   0.76184   0.25000 
C          C       0.23816   0.58521   0.25000 
C          C       0.41479   0.65295   0.25000 
C          C       0.66053   0.28595   0.25000 
C          C       0.71405   0.37458   0.25000 
C          C       0.62542   0.33947   0.25000 
C          C       0.33947   0.71405   0.25000 
C          C       0.28595   0.62542   0.25000 
C          C       0.37458   0.66053   0.25000 
H          H       0.71162   0.46035   0.25000 
H          H       0.53965   0.25127   0.25000 
H          H       0.74873   0.28838   0.25000 
H          H       0.28838   0.53965   0.25000 
H          H       0.46035   0.74873   0.25000 
H          H       0.25127   0.71162   0.25000 
C          C       0.39016   0.46926   0.25000 
C          C       0.53074   0.92090   0.25000 
C          C       0.07910   0.60984   0.25000 
C          C       0.60984   0.53074   0.25000 
C          C       0.46926   0.07910   0.25000 
C          C       0.92090   0.39016   0.25000 
C          C       0.39602   0.51532   0.25000 
C          C       0.48468   0.88070   0.25000 
C          C       0.11930   0.60398   0.25000 
C          C       0.60398   0.48468   0.25000 
C          C       0.51532   0.11930   0.25000 
C          C       0.88070   0.39602   0.25000 
C          C       0.43047   0.46320   0.25000 
C          C       0.53680   0.96727   0.25000 
C          C       0.03273   0.56953   0.25000 
C          C       0.56953   0.53680   0.25000 
C          C       0.46320   0.03273   0.25000 
C          C       0.96727   0.43047   0.25000 
N          N       0.16456   0.64289   0.25000 
N          N       0.35711   0.52167   0.25000 
N          N       0.47833   0.83544   0.25000 
N          N       0.83544   0.35711   0.25000 
N          N       0.64289   0.47833   0.25000 
N          N       0.52167   0.16456   0.25000 
C          C       0.20408   0.63745   0.25000 
C          C       0.36255   0.56663   0.25000 
C          C       0.43337   0.79592   0.25000 
C          C       0.79592   0.36255   0.25000 
C          C       0.63745   0.43337   0.25000 
C          C       0.56663   0.20408   0.25000 
C          C       0.25015   0.67753   0.25000 
C          C       0.32247   0.57262   0.25000 
C          C       0.42738   0.74985   0.25000 
C          C       0.74985   0.32247   0.25000 
C          C       0.67753   0.42738   0.25000 
C          C       0.57262   0.25015   0.25000 
C          C       0.29211   0.67284   0.25000 
C          C       0.32716   0.61927   0.25000 
C          C       0.38073   0.70789   0.25000 
C          C       0.70789   0.32716   0.25000 
C          C       0.67284   0.38073   0.25000 
C          C       0.61927   0.29211   0.25000 
H          H       0.45164   0.68170   0.25000 
H          H       0.31830   0.76994   0.25000 
H          H       0.23006   0.54836   0.25000 
H          H       0.54836   0.31830   0.25000 
H          H       0.68170   0.23006   0.25000 
H          H       0.76994   0.45164   0.25000 
C          C       0.51699   0.45010   0.25000 
C          C       0.54990   0.06689   0.25000 
C          C       0.93311   0.48301   0.25000 
C          C       0.48301   0.54990   0.25000 
C          C       0.45010   0.93311   0.25000 
C          C       0.06689   0.51699   0.25000 
C          C       0.55742   0.44423   0.25000 
C          C       0.55577   0.11319   0.25000 
C          C       0.88681   0.44258   0.25000 
C          C       0.44258   0.55577   0.25000 
C          C       0.44423   0.88681   0.25000 
C          C       0.11319   0.55742   0.25000 
C          C       0.52188   0.49668   0.25000 
C          C       0.50332   0.02520   0.25000 
C          C       0.97480   0.47812   0.25000 
C          C       0.47812   0.50332   0.25000 
C          C       0.49668   0.97480   0.25000 
C          C       0.02520   0.52188   0.25000 
H          H       0.93507   0.51755   0.25000 
H          H       0.48245   0.41752   0.25000 
H          H       0.58248   0.06493   0.25000 
H          H       0.06493   0.48245   0.25000 
H          H       0.51755   0.58248   0.25000 
H          H       0.41752   0.93507   0.25000 
H          H       0.99640   0.42288   0.25000 
H          H       0.57712   0.57352   0.25000 
H          H       0.42648   0.00360   0.25000 
H          H       0.00360   0.57712   0.25000 
H          H       0.42288   0.42648   0.25000 
H          H       0.57352   0.99640   0.25000 
H          H       0.91640   0.35430   0.25000 
H          H       0.64570   0.56210   0.25000 
H          H       0.43790   0.08360   0.25000 
H          H       0.08360   0.64570   0.25000 
H          H       0.35430   0.43790   0.25000 
H          H       0.56210   0.91640   0.25000 
N          N       0.60062   0.15279   0.75000 
N          N       0.84721   0.44783   0.75000 
N          N       0.55217   0.39938   0.75000 
N          N       0.39938   0.84721   0.75000 
N          N       0.15279   0.55217   0.75000 
N          N       0.44783   0.60062   0.75000 
C          C       0.60689   0.19807   0.75000 
C          C       0.80193   0.40882   0.75000 
C          C       0.59118   0.39311   0.75000 
C          C       0.39311   0.80193   0.75000 
C          C       0.19807   0.59118   0.75000 
C          C       0.40882   0.60689   0.75000 
C          C       0.65295   0.23816   0.75000 
C          C       0.76184   0.41479   0.75000 
C          C       0.58521   0.34705   0.75000 
C          C       0.34705   0.76184   0.75000 
C          C       0.23816   0.58521   0.75000 
C          C       0.41479   0.65295   0.75000 
C          C       0.66053   0.28595   0.75000 
C          C       0.71405   0.37458   0.75000 
C          C       0.62542   0.33947   0.75000 
C          C       0.33947   0.71405   0.75000 
C          C       0.28595   0.62542   0.75000 
C          C       0.37458   0.66053   0.75000 
H          H       0.71162   0.46035   0.75000 
H          H       0.53965   0.25127   0.75000 
H          H       0.74873   0.28838   0.75000 
H          H       0.28838   0.53965   0.75000 
H          H       0.46035   0.74873   0.75000 
H          H       0.25127   0.71162   0.75000 
C          C       0.39016   0.46926   0.75000 
C          C       0.53074   0.92090   0.75000 
C          C       0.07910   0.60984   0.75000 
C          C       0.60984   0.53074   0.75000 
C          C       0.46926   0.07910   0.75000 
C          C       0.92090   0.39016   0.75000 
C          C       0.39602   0.51532   0.75000 
C          C       0.48468   0.88070   0.75000 
C          C       0.11930   0.60398   0.75000 
C          C       0.60398   0.48468   0.75000 
C          C       0.51532   0.11930   0.75000 
C          C       0.88070   0.39602   0.75000 
C          C       0.43047   0.46320   0.75000 
C          C       0.53680   0.96727   0.75000 
C          C       0.03273   0.56953   0.75000 
C          C       0.56953   0.53680   0.75000 
C          C       0.46320   0.03273   0.75000 
C          C       0.96727   0.43047   0.75000 
N          N       0.16456   0.64289   0.75000 
N          N       0.35711   0.52167   0.75000 
N          N       0.47833   0.83544   0.75000 
N          N       0.83544   0.35711   0.75000 
N          N       0.64289   0.47833   0.75000 
N          N       0.52167   0.16456   0.75000 
C          C       0.20408   0.63745   0.75000 
C          C       0.36255   0.56663   0.75000 
C          C       0.43337   0.79592   0.75000 
C          C       0.79592   0.36255   0.75000 
C          C       0.63745   0.43337   0.75000 
C          C       0.56663   0.20408   0.75000 
C          C       0.25015   0.67753   0.75000 
C          C       0.32247   0.57262   0.75000 
C          C       0.42738   0.74985   0.75000 
C          C       0.74985   0.32247   0.75000 
C          C       0.67753   0.42738   0.75000 
C          C       0.57262   0.25015   0.75000 
C          C       0.29211   0.67284   0.75000 
C          C       0.32716   0.61927   0.75000 
C          C       0.38073   0.70789   0.75000 
C          C       0.70789   0.32716   0.75000 
C          C       0.67284   0.38073   0.75000 
C          C       0.61927   0.29211   0.75000 
H          H       0.45164   0.68170   0.75000 
H          H       0.31830   0.76994   0.75000 
H          H       0.23006   0.54836   0.75000 
H          H       0.54836   0.31830   0.75000 
H          H       0.68170   0.23006   0.75000 
H          H       0.76994   0.45164   0.75000 
C          C       0.51699   0.45010   0.75000 
C          C       0.54990   0.06689   0.75000 
C          C       0.93311   0.48301   0.75000 
C          C       0.48301   0.54990   0.75000 
C          C       0.45010   0.93311   0.75000 
C          C       0.06689   0.51699   0.75000 
C          C       0.55742   0.44423   0.75000 
C          C       0.55577   0.11319   0.75000 
C          C       0.88681   0.44258   0.75000 
C          C       0.44258   0.55577   0.75000 
C          C       0.44423   0.88681   0.75000 
C          C       0.11319   0.55742   0.75000 
C          C       0.52188   0.49668   0.75000 
C          C       0.50332   0.02520   0.75000 
C          C       0.97480   0.47812   0.75000 
C          C       0.47812   0.50332   0.75000 
C          C       0.49668   0.97480   0.75000 
C          C       0.02520   0.52188   0.75000 
H          H       0.93507   0.51755   0.75000 
H          H       0.48245   0.41752   0.75000 
H          H       0.58248   0.06493   0.75000 
H          H       0.06493   0.48245   0.75000 
H          H       0.51755   0.58248   0.75000 
H          H       0.41752   0.93507   0.75000 
H          H       0.99640   0.42288   0.75000 
H          H       0.57712   0.57352   0.75000 
H          H       0.42648   0.00360   0.75000 
H          H       0.00360   0.57712   0.75000 
H          H       0.42288   0.42648   0.75000 
H          H       0.57352   0.99640   0.75000 
H          H       0.91640   0.35430   0.75000 
H          H       0.64570   0.56210   0.75000 
H          H       0.43790   0.08360   0.75000 
H          H       0.08360   0.64570   0.75000 
H          H       0.35430   0.43790   0.75000 
H          H       0.56210   0.91640   0.75000 
