data_crystal

_cell_length_a    32.01800
_cell_length_b    32.01800
_cell_length_c    6.51200
_cell_angle_alpha 90.00000
_cell_angle_beta  90.00000
_cell_angle_gamma 120.00000

_space_group_name_Hall 'P 1'
_space_group_name_H-M_alt  'P 1'

loop_
_symmetry_equiv_pos_as_xyz
'x,y,z' 

loop_
_atom_site_label
_atom_site_type_symbol
_atom_site_fract_x
_atom_site_fract_y
_atom_site_fract_z
N          N       0.16860   0.14502   0.75000 
N          N       0.85498   0.02358   0.75000 
N          N       0.97642   0.83140   0.75000 
N          N       0.83140   0.85498   0.25000 
N          N       0.14502   0.97642   0.25000 
N          N       0.02358   0.16860   0.25000 
C          C       0.21387   0.15140   0.75000 
C          C       0.84860   0.06247   0.75000 
C          C       0.93753   0.78613   0.75000 
C          C       0.78613   0.84860   0.25000 
C          C       0.15140   0.93753   0.25000 
C          C       0.06247   0.21387   0.25000 
C          C       0.35839   0.17003   0.75000 
C          C       0.82997   0.18836   0.75000 
C          C       0.81164   0.64161   0.75000 
C          C       0.64161   0.82997   0.25000 
C          C       0.17003   0.81164   0.25000 
C          C       0.18836   0.35839   0.25000 
C          C       0.44643   0.22247   0.75000 
C          C       0.77753   0.22396   0.75000 
C          C       0.77604   0.55357   0.75000 
C          C       0.55357   0.77753   0.25000 
C          C       0.22247   0.77604   0.25000 
C          C       0.22396   0.44643   0.25000 
N          N       0.48605   0.26731   0.75000 
N          N       0.73269   0.21874   0.75000 
N          N       0.78126   0.51395   0.75000 
N          N       0.51395   0.73269   0.25000 
N          N       0.26731   0.78126   0.25000 
N          N       0.21874   0.48605   0.25000 
C          C       0.53134   0.27357   0.75000 
C          C       0.72643   0.25777   0.75000 
C          C       0.74223   0.46866   0.75000 
C          C       0.46866   0.72643   0.25000 
C          C       0.27357   0.74223   0.25000 
C          C       0.25777   0.53134   0.25000 
C          C       0.57147   0.31964   0.75000 
C          C       0.68036   0.25183   0.75000 
C          C       0.74817   0.42853   0.75000 
C          C       0.42853   0.68036   0.25000 
C          C       0.31964   0.74817   0.25000 
C          C       0.25183   0.57147   0.25000 
C          C       0.61927   0.32721   0.75000 
C          C       0.67279   0.29206   0.75000 
C          C       0.70794   0.38073   0.75000 
C          C       0.38073   0.67279   0.25000 
C          C       0.32721   0.70794   0.25000 
C          C       0.29206   0.61927   0.25000 
C          C       0.12913   0.10006   0.75000 
C          C       0.89994   0.02907   0.75000 
C          C       0.97093   0.87087   0.75000 
C          C       0.87087   0.89994   0.25000 
C          C       0.10006   0.97093   0.25000 
C          C       0.02907   0.12913   0.25000 
C          C       0.08308   0.09405   0.75000 
C          C       0.90595   0.98903   0.75000 
C          C       0.01097   0.91692   0.75000 
C          C       0.91692   0.90595   0.25000 
C          C       0.09405   0.01097   0.25000 
C          C       0.98903   0.08308   0.25000 
C          C       0.99383   0.04120   0.75000 
C          C       0.95880   0.95263   0.75000 
C          C       0.04737   0.00617   0.75000 
C          C       0.00617   0.95880   0.25000 
C          C       0.04120   0.04737   0.25000 
C          C       0.95263   0.99383   0.25000 
H          H       0.08194   0.12701   0.75000 
H          H       0.87299   0.95493   0.75000 
H          H       0.04507   0.91806   0.75000 
H          H       0.91806   0.87299   0.25000 
H          H       0.12701   0.04507   0.25000 
H          H       0.95493   0.08194   0.25000 
H          H       0.56340   0.34842   0.75000 
H          H       0.65158   0.21498   0.75000 
H          H       0.78502   0.43660   0.75000 
H          H       0.43660   0.65158   0.25000 
H          H       0.34842   0.78502   0.25000 
H          H       0.21498   0.56340   0.25000 
C          C       0.94342   0.74595   0.75000 
C          C       0.25405   0.19747   0.75000 
C          C       0.80253   0.05658   0.75000 
C          C       0.05658   0.25405   0.25000 
C          C       0.74595   0.80253   0.25000 
C          C       0.19747   0.94342   0.25000 
C          C       0.90310   0.69957   0.75000 
C          C       0.30043   0.20353   0.75000 
C          C       0.79647   0.09690   0.75000 
C          C       0.09690   0.30043   0.25000 
C          C       0.69957   0.79647   0.25000 
C          C       0.20353   0.90310   0.25000 
C          C       0.81649   0.59988   0.75000 
C          C       0.40012   0.21661   0.75000 
C          C       0.78339   0.18351   0.75000 
C          C       0.18351   0.40012   0.25000 
C          C       0.59988   0.78339   0.25000 
C          C       0.21661   0.81649   0.25000 
N          N       0.11432   0.18043   0.25000 
N          N       0.81957   0.93389   0.25000 
N          N       0.06611   0.88568   0.25000 
N          N       0.88568   0.81957   0.75000 
N          N       0.18043   0.06611   0.75000 
N          N       0.93389   0.11432   0.75000 
C          C       0.10904   0.21999   0.25000 
C          C       0.78001   0.88905   0.25000 
C          C       0.11095   0.89096   0.25000 
C          C       0.89096   0.78001   0.75000 
C          C       0.21999   0.11095   0.75000 
C          C       0.88905   0.10904   0.75000 
C          C       0.23603   0.36593   0.25000 
C          C       0.63407   0.87010   0.25000 
C          C       0.12990   0.76397   0.25000 
C          C       0.76397   0.63407   0.75000 
C          C       0.36593   0.12990   0.75000 
C          C       0.87010   0.23603   0.75000 
C          C       0.27051   0.45252   0.25000 
C          C       0.54748   0.81799   0.25000 
C          C       0.18201   0.72949   0.25000 
C          C       0.72949   0.54748   0.75000 
C          C       0.45252   0.18201   0.75000 
C          C       0.81799   0.27051   0.75000 
N          N       0.30944   0.49778   0.25000 
N          N       0.50222   0.81166   0.25000 
N          N       0.18834   0.69056   0.25000 
N          N       0.69056   0.50222   0.75000 
N          N       0.49778   0.18834   0.75000 
N          N       0.81166   0.30944   0.75000 
C          C       0.30403   0.53733   0.25000 
C          C       0.46267   0.76670   0.25000 
C          C       0.23330   0.69597   0.25000 
C          C       0.69597   0.46267   0.75000 
C          C       0.53733   0.23330   0.75000 
C          C       0.76670   0.30403   0.75000 
C          C       0.34413   0.58341   0.25000 
C          C       0.41659   0.76072   0.25000 
C          C       0.23928   0.65587   0.25000 
C          C       0.65587   0.41659   0.75000 
C          C       0.58341   0.23928   0.75000 
C          C       0.76072   0.34413   0.75000 
C          C       0.33949   0.62541   0.25000 
C          C       0.37459   0.71408   0.25000 
C          C       0.28592   0.66051   0.25000 
C          C       0.66051   0.37459   0.75000 
C          C       0.62541   0.28592   0.75000 
C          C       0.71408   0.33949   0.75000 
C          C       0.07534   0.13516   0.25000 
C          C       0.86484   0.94018   0.25000 
C          C       0.05982   0.92466   0.25000 
C          C       0.92466   0.86484   0.75000 
C          C       0.13516   0.05982   0.75000 
C          C       0.94018   0.07534   0.75000 
C          C       0.08136   0.09514   0.25000 
C          C       0.90486   0.98622   0.25000 
C          C       0.01378   0.91864   0.25000 
C          C       0.91864   0.90486   0.75000 
C          C       0.09514   0.01378   0.75000 
C          C       0.98622   0.08136   0.75000 
C          C       0.04740   0.00623   0.25000 
C          C       0.99377   0.04117   0.25000 
C          C       0.95883   0.95260   0.25000 
C          C       0.95260   0.99377   0.75000 
C          C       0.00623   0.95883   0.75000 
C          C       0.04117   0.04740   0.75000 
H          H       0.18400   0.26824   0.25000 
H          H       0.73176   0.91576   0.25000 
H          H       0.08424   0.81600   0.25000 
H          H       0.81600   0.73176   0.75000 
H          H       0.26824   0.08424   0.75000 
H          H       0.91576   0.18400   0.75000 
H          H       0.37823   0.58453   0.25000 
H          H       0.41547   0.79370   0.25000 
H          H       0.20630   0.62177   0.25000 
H          H       0.62177   0.41547   0.75000 
H          H       0.58453   0.20630   0.75000 
H          H       0.79370   0.37823   0.75000 
C          C       0.73371   0.88317   0.25000 
C          C       0.11683   0.85054   0.25000 
C          C       0.14946   0.26629   0.25000 
C          C       0.26629   0.11683   0.75000 
C          C       0.88317   0.14946   0.75000 
C          C       0.85054   0.73371   0.75000 
C          C       0.69201   0.83659   0.25000 
C          C       0.16341   0.85542   0.25000 
C          C       0.14458   0.30799   0.25000 
C          C       0.30799   0.16341   0.75000 
C          C       0.83659   0.14458   0.75000 
C          C       0.85542   0.69201   0.75000 
C          C       0.58770   0.86406   0.25000 
C          C       0.13594   0.72364   0.25000 
C          C       0.27636   0.41230   0.25000 
C          C       0.41230   0.13594   0.75000 
C          C       0.86406   0.27636   0.75000 
C          C       0.72364   0.58770   0.75000 
H          H       0.24361   0.33679   0.25000 
H          H       0.66321   0.90682   0.25000 
H          H       0.09318   0.75639   0.25000 
H          H       0.75639   0.66321   0.75000 
H          H       0.33679   0.09318   0.75000 
H          H       0.90682   0.24361   0.75000 
H          H       0.31221   0.41678   0.25000 
H          H       0.58322   0.89543   0.25000 
H          H       0.10457   0.68779   0.25000 
H          H       0.68779   0.58322   0.75000 
H          H       0.41678   0.10457   0.75000 
H          H       0.89543   0.31221   0.75000 
H          H       0.14896   0.39815   0.25000 
H          H       0.60185   0.75081   0.25000 
H          H       0.24919   0.85104   0.25000 
H          H       0.85104   0.60185   0.75000 
H          H       0.39815   0.24919   0.75000 
H          H       0.75081   0.14896   0.75000 
H          H       0.08932   0.32957   0.25000 
H          H       0.67043   0.75975   0.25000 
H          H       0.24025   0.91068   0.25000 
H          H       0.91068   0.67043   0.75000 
H          H       0.32957   0.24025   0.75000 
H          H       0.75975   0.08932   0.75000 
H          H       0.02071   0.24953   0.25000 
H          H       0.75047   0.77118   0.25000 
H          H       0.22882   0.97929   0.25000 
H          H       0.97929   0.75047   0.75000 
H          H       0.24953   0.22882   0.75000 
H          H       0.77118   0.02071   0.75000 
H          H       0.11823   0.10328   0.25000 
H          H       0.89672   0.01495   0.25000 
H          H       0.98505   0.88177   0.25000 
H          H       0.88177   0.89672   0.75000 
H          H       0.10328   0.98505   0.75000 
H          H       0.01495   0.11823   0.75000 
