data_crystal

_cell_length_a    37.89150
_cell_length_b    37.89150
_cell_length_c    7.18240
_cell_angle_alpha 90.00000
_cell_angle_beta  90.00000
_cell_angle_gamma 120.00000

_space_group_name_Hall 'P 1'
_space_group_name_H-M_alt  'P 1'

loop_
_symmetry_equiv_pos_as_xyz
'x,y,z' 

loop_
_atom_site_label
_atom_site_type_symbol
_atom_site_fract_x
_atom_site_fract_y
_atom_site_fract_z
C          C       0.30974   0.19596   0.28791 
C          C       0.80404   0.11378   0.28791 
C          C       0.88622   0.69026   0.28791 
C          C       0.35298   0.22014   0.29860 
C          C       0.77986   0.13284   0.29860 
C          C       0.86716   0.64702   0.29860 
C          C       0.35059   0.25657   0.35229 
C          C       0.74343   0.09402   0.35229 
C          C       0.90598   0.64941   0.35229 
C          C       0.30467   0.23112   0.33421 
C          C       0.76888   0.07355   0.33421 
C          C       0.92645   0.69533   0.33421 
O          O       0.27539   0.23697   0.34098 
O          O       0.76303   0.03842   0.34098 
O          O       0.96158   0.72461   0.34098 
O          O       0.37588   0.29190   0.39637 
O          O       0.70810   0.08398   0.39637 
O          O       0.91602   0.62412   0.39637 
N          N       0.28373   0.15548   0.25135 
N          N       0.84452   0.12825   0.25135 
N          N       0.87175   0.71627   0.25135 
N          N       0.38360   0.21160   0.26632 
N          N       0.78840   0.17200   0.26632 
N          N       0.82800   0.61640   0.26632 
C          C       0.24027   0.13241   0.26670 
C          C       0.86759   0.10786   0.26670 
C          C       0.89214   0.75973   0.26670 
H          H       0.29702   0.13755   0.25607 
H          H       0.86245   0.15947   0.25607 
H          H       0.84053   0.70298   0.25607 
C          C       0.21254   0.14474   0.20366 
C          C       0.85526   0.06780   0.20366 
C          C       0.93220   0.78746   0.20366 
C          C       0.17065   0.11688   0.20611 
C          C       0.88312   0.05377   0.20611 
C          C       0.94623   0.82935   0.20611 
C          C       0.15508   0.07716   0.27208 
C          C       0.92284   0.07792   0.27208 
C          C       0.92208   0.84492   0.27208 
C          C       0.18266   0.06503   0.33159 
C          C       0.93497   0.11763   0.33159 
C          C       0.88237   0.81734   0.33159 
C          C       0.22414   0.09214   0.32769 
C          C       0.90786   0.13200   0.32769 
C          C       0.86800   0.77586   0.32769 
C          C       0.42683   0.23667   0.27961 
C          C       0.76333   0.19016   0.27961 
C          C       0.80984   0.57317   0.27961 
C          C       0.45027   0.27906   0.24033 
C          C       0.72094   0.17121   0.24033 
C          C       0.82879   0.54973   0.24033 
C          C       0.49276   0.29800   0.24143 
C          C       0.70200   0.19476   0.24143 
C          C       0.80524   0.50724   0.24143 
C          C       0.51346   0.27700   0.27946 
C          C       0.72300   0.23646   0.27946 
C          C       0.76354   0.48654   0.27946 
C          C       0.49024   0.23518   0.31875 
C          C       0.76482   0.25506   0.31875 
C          C       0.74494   0.50976   0.31875 
C          C       0.44809   0.21594   0.31652 
C          C       0.78406   0.23215   0.31652 
C          C       0.76785   0.55191   0.31652 
H          H       0.37417   0.18111   0.25408 
H          H       0.81889   0.19306   0.25408 
H          H       0.80694   0.62583   0.25408 
H          H       0.15038   0.12702   0.15088 
H          H       0.87298   0.02336   0.15088 
H          H       0.97664   0.84962   0.15088 
H          H       0.17131   0.03411   0.38257 
H          H       0.96589   0.13720   0.38257 
H          H       0.86280   0.82869   0.38257 
H          H       0.24516   0.08189   0.37203 
H          H       0.91811   0.16327   0.37203 
H          H       0.83673   0.75484   0.37203 
H          H       0.51008   0.33041   0.20849 
H          H       0.66959   0.17967   0.20849 
H          H       0.82033   0.48992   0.20849 
H          H       0.50488   0.21744   0.35202 
H          H       0.78256   0.28744   0.35202 
H          H       0.71256   0.49512   0.35202 
H          H       0.43048   0.18318   0.34418 
H          H       0.81682   0.24730   0.34418 
H          H       0.75270   0.56952   0.34418 
C          C       0.04199   0.02829   0.28096 
C          C       0.97171   0.01370   0.28096 
C          C       0.98630   0.95801   0.28096 
C          C       0.01356   0.04155   0.28110 
C          C       0.95845   0.97201   0.28110 
C          C       0.02799   0.98644   0.28110 
C          C       0.08596   0.05844   0.28399 
C          C       0.94156   0.02752   0.28399 
C          C       0.97248   0.91404   0.28399 
N          N       0.11316   0.04741   0.27152 
N          N       0.95259   0.06575   0.27152 
N          N       0.93425   0.88684   0.27152 
H          H       0.02386   0.07415   0.28198 
H          H       0.92585   0.94971   0.28198 
H          H       0.05029   0.97614   0.28198 
H          H       0.09406   0.09098   0.30016 
H          H       0.90902   0.00308   0.30016 
H          H       0.99692   0.90594   0.30016 
C          C       0.64302   0.35196   0.26961 
C          C       0.64804   0.29106   0.26961 
C          C       0.70894   0.35698   0.26961 
C          C       0.62393   0.30941   0.26981 
C          C       0.69059   0.31452   0.26981 
C          C       0.68548   0.37607   0.26981 
C          C       0.57905   0.28406   0.26575 
C          C       0.71594   0.29499   0.26575 
C          C       0.70501   0.42095   0.26575 
N          N       0.55648   0.30057   0.28339 
N          N       0.69943   0.25591   0.28339 
N          N       0.74409   0.44352   0.28339 
H          H       0.62406   0.36621   0.26854 
H          H       0.63379   0.25785   0.26854 
H          H       0.74215   0.37594   0.26854 
H          H       0.56635   0.25062   0.24402 
H          H       0.74938   0.31573   0.24402 
H          H       0.68427   0.43365   0.24402 
H          H       0.22243   0.17844   0.19195 
H          H       0.82156   0.04399   0.19195 
H          H       0.95601   0.77757   0.19195 
H          H       0.43145   0.29493   0.24097 
H          H       0.70507   0.13652   0.24097 
H          H       0.86348   0.56855   0.24097 
C          C       0.30974   0.19596   0.78791 
C          C       0.80404   0.11378   0.78791 
C          C       0.88622   0.69026   0.78791 
C          C       0.35298   0.22014   0.79860 
C          C       0.77986   0.13284   0.79860 
C          C       0.86716   0.64702   0.79860 
C          C       0.35059   0.25657   0.85229 
C          C       0.74343   0.09402   0.85229 
C          C       0.90598   0.64941   0.85229 
C          C       0.30467   0.23112   0.83421 
C          C       0.76888   0.07355   0.83421 
C          C       0.92645   0.69533   0.83421 
O          O       0.27539   0.23697   0.84098 
O          O       0.76303   0.03842   0.84098 
O          O       0.96158   0.72461   0.84098 
O          O       0.37588   0.29190   0.89637 
O          O       0.70810   0.08398   0.89637 
O          O       0.91602   0.62412   0.89637 
N          N       0.28373   0.15548   0.75135 
N          N       0.84452   0.12825   0.75135 
N          N       0.87175   0.71627   0.75135 
N          N       0.38360   0.21160   0.76632 
N          N       0.78840   0.17200   0.76632 
N          N       0.82800   0.61640   0.76632 
C          C       0.24027   0.13241   0.76670 
C          C       0.86759   0.10786   0.76670 
C          C       0.89214   0.75973   0.76670 
H          H       0.29702   0.13755   0.75607 
H          H       0.86245   0.15947   0.75607 
H          H       0.84053   0.70298   0.75607 
C          C       0.21254   0.14474   0.70366 
C          C       0.85526   0.06780   0.70366 
C          C       0.93220   0.78746   0.70366 
C          C       0.17065   0.11688   0.70610 
C          C       0.88312   0.05377   0.70610 
C          C       0.94623   0.82935   0.70610 
C          C       0.15508   0.07716   0.77208 
C          C       0.92284   0.07792   0.77208 
C          C       0.92208   0.84492   0.77208 
C          C       0.18266   0.06503   0.83159 
C          C       0.93497   0.11763   0.83159 
C          C       0.88237   0.81734   0.83159 
C          C       0.22414   0.09214   0.82769 
C          C       0.90786   0.13200   0.82769 
C          C       0.86800   0.77586   0.82769 
C          C       0.42683   0.23667   0.77961 
C          C       0.76333   0.19016   0.77961 
C          C       0.80984   0.57317   0.77961 
C          C       0.45027   0.27906   0.74033 
C          C       0.72094   0.17121   0.74033 
C          C       0.82879   0.54973   0.74033 
C          C       0.49276   0.29800   0.74143 
C          C       0.70200   0.19476   0.74143 
C          C       0.80524   0.50724   0.74143 
C          C       0.51346   0.27700   0.77946 
C          C       0.72300   0.23646   0.77946 
C          C       0.76354   0.48654   0.77946 
C          C       0.49024   0.23518   0.81874 
C          C       0.76482   0.25506   0.81874 
C          C       0.74494   0.50976   0.81874 
C          C       0.44809   0.21594   0.81652 
C          C       0.78406   0.23215   0.81652 
C          C       0.76785   0.55191   0.81652 
H          H       0.37417   0.18111   0.75408 
H          H       0.81889   0.19306   0.75408 
H          H       0.80694   0.62583   0.75408 
H          H       0.15038   0.12702   0.65088 
H          H       0.87298   0.02336   0.65088 
H          H       0.97664   0.84962   0.65088 
H          H       0.17131   0.03411   0.88257 
H          H       0.96589   0.13720   0.88257 
H          H       0.86280   0.82869   0.88257 
H          H       0.24516   0.08189   0.87203 
H          H       0.91811   0.16327   0.87203 
H          H       0.83673   0.75484   0.87203 
H          H       0.51008   0.33041   0.70849 
H          H       0.66959   0.17967   0.70849 
H          H       0.82033   0.48992   0.70849 
H          H       0.50488   0.21744   0.85202 
H          H       0.78256   0.28744   0.85202 
H          H       0.71256   0.49512   0.85202 
H          H       0.43048   0.18318   0.84418 
H          H       0.81682   0.24730   0.84418 
H          H       0.75270   0.56952   0.84418 
C          C       0.04199   0.02829   0.78095 
C          C       0.97171   0.01370   0.78095 
C          C       0.98630   0.95801   0.78095 
C          C       0.01356   0.04155   0.78110 
C          C       0.95845   0.97201   0.78110 
C          C       0.02799   0.98644   0.78110 
C          C       0.08596   0.05844   0.78399 
C          C       0.94156   0.02752   0.78399 
C          C       0.97248   0.91404   0.78399 
N          N       0.11316   0.04741   0.77152 
N          N       0.95259   0.06575   0.77152 
N          N       0.93425   0.88684   0.77152 
H          H       0.02386   0.07415   0.78198 
H          H       0.92585   0.94971   0.78198 
H          H       0.05029   0.97614   0.78198 
H          H       0.09406   0.09098   0.80015 
H          H       0.90902   0.00308   0.80015 
H          H       0.99692   0.90594   0.80015 
C          C       0.64302   0.35196   0.76962 
C          C       0.64804   0.29106   0.76962 
C          C       0.70894   0.35698   0.76962 
C          C       0.62393   0.30941   0.76981 
C          C       0.69059   0.31452   0.76981 
C          C       0.68548   0.37607   0.76981 
C          C       0.57905   0.28406   0.76575 
C          C       0.71594   0.29499   0.76575 
C          C       0.70501   0.42095   0.76575 
N          N       0.55648   0.30057   0.78339 
N          N       0.69943   0.25591   0.78339 
N          N       0.74409   0.44352   0.78339 
H          H       0.62406   0.36621   0.76855 
H          H       0.63379   0.25785   0.76855 
H          H       0.74215   0.37594   0.76855 
H          H       0.56635   0.25062   0.74401 
H          H       0.74938   0.31573   0.74401 
H          H       0.68427   0.43365   0.74401 
H          H       0.22243   0.17844   0.69195 
H          H       0.82156   0.04399   0.69195 
H          H       0.95601   0.77757   0.69195 
H          H       0.43145   0.29493   0.74097 
H          H       0.70507   0.13652   0.74097 
H          H       0.86348   0.56855   0.74097 
