data_crystal

_cell_length_a    30.76000
_cell_length_b    30.76000
_cell_length_c    6.40000
_cell_angle_alpha 90.00000
_cell_angle_beta  90.00000
_cell_angle_gamma 120.00000

_space_group_name_Hall 'P 1'
_space_group_name_H-M_alt  'P 1'

loop_
_symmetry_equiv_pos_as_xyz
'x,y,z' 

loop_
_atom_site_label
_atom_site_type_symbol
_atom_site_fract_x
_atom_site_fract_y
_atom_site_fract_z
C          C       0.76477   0.20460   0.29334 
C          C       0.79540   0.56017   0.29334 
C          C       0.43983   0.23523   0.29334 
C          C       0.23523   0.79540   0.79334 
C          C       0.20460   0.43983   0.79334 
C          C       0.56017   0.76477   0.79334 
N          N       0.73416   0.25974   0.21968 
N          N       0.74026   0.47442   0.21968 
N          N       0.52558   0.26584   0.21968 
N          N       0.26584   0.74026   0.71968 
N          N       0.25974   0.52558   0.71968 
N          N       0.47442   0.73416   0.71968 
C          C       0.65212   0.28237   0.13105 
C          C       0.71763   0.36975   0.13105 
C          C       0.63025   0.34788   0.13105 
C          C       0.34788   0.71763   0.63105 
C          C       0.28237   0.63025   0.63105 
C          C       0.36975   0.65212   0.63105 
C          C       0.70344   0.31866   0.13260 
C          C       0.68134   0.38478   0.13260 
C          C       0.61522   0.29656   0.13260 
C          C       0.29656   0.68134   0.63260 
C          C       0.31866   0.61522   0.63260 
C          C       0.38478   0.70344   0.63260 
C          C       0.74264   0.30388   0.13177 
C          C       0.69612   0.43876   0.13177 
C          C       0.56124   0.25736   0.13177 
C          C       0.25736   0.69612   0.63177 
C          C       0.30388   0.56124   0.63177 
C          C       0.43876   0.74264   0.63177 
C          C       0.80456   0.19075   0.28818 
C          C       0.80925   0.61381   0.28818 
C          C       0.38619   0.19544   0.28818 
C          C       0.19544   0.80925   0.78818 
C          C       0.19075   0.38619   0.78818 
C          C       0.61381   0.80456   0.78818 
C          C       0.79064   0.14088   0.33524 
C          C       0.85912   0.64976   0.33524 
C          C       0.35024   0.20936   0.33524 
C          C       0.20936   0.85912   0.83524 
C          C       0.14088   0.35024   0.83524 
C          C       0.64976   0.79064   0.83524 
C          C       0.85515   0.22571   0.24016 
C          C       0.77429   0.62944   0.24016 
C          C       0.37056   0.14485   0.24016 
C          C       0.14485   0.77429   0.74016 
C          C       0.22571   0.37056   0.74016 
C          C       0.62944   0.85515   0.74016 
C          C       0.76235   0.03870   0.43147 
C          C       0.96130   0.72365   0.43147 
C          C       0.27635   0.23765   0.43147 
C          C       0.23765   0.96130   0.93147 
C          C       0.03870   0.27635   0.93147 
C          C       0.72365   0.76235   0.93147 
O          O       0.78346   0.33207   0.05365 
O          O       0.66793   0.45139   0.05365 
O          O       0.54861   0.21654   0.05365 
O          O       0.21654   0.66793   0.55365 
O          O       0.33207   0.54861   0.55365 
O          O       0.45139   0.78346   0.55365 
O          O       0.86840   0.27595   0.19730 
O          O       0.72405   0.59245   0.19730 
O          O       0.40755   0.13160   0.19730 
O          O       0.13160   0.72405   0.69730 
O          O       0.27595   0.40755   0.69730 
O          O       0.59245   0.86840   0.69730 
N          N       0.77181   0.24659   0.21601 
N          N       0.75341   0.52522   0.21601 
N          N       0.47478   0.22819   0.21601 
N          N       0.22819   0.75341   0.71601 
N          N       0.24659   0.47478   0.71601 
N          N       0.52522   0.77181   0.71601 
H          H       0.72847   0.17824   0.35920 
H          H       0.82176   0.55023   0.35920 
H          H       0.44977   0.27153   0.35920 
H          H       0.27153   0.82176   0.85920 
H          H       0.17824   0.44977   0.85920 
H          H       0.55023   0.72847   0.85920 
H          H       0.70033   0.23636   0.29622 
H          H       0.76364   0.46397   0.29622 
H          H       0.53603   0.29967   0.29622 
H          H       0.29967   0.76364   0.79622 
H          H       0.23636   0.53603   0.79622 
H          H       0.46397   0.70033   0.79622 
H          H       0.64055   0.24288   0.12606 
H          H       0.75712   0.39767   0.12606 
H          H       0.60233   0.35945   0.12606 
H          H       0.35945   0.75712   0.62606 
H          H       0.24288   0.60233   0.62606 
H          H       0.39767   0.64055   0.62606 
H          H       0.75175   0.11512   0.37296 
H          H       0.88488   0.63663   0.37296 
H          H       0.36337   0.24825   0.37296 
H          H       0.24825   0.88488   0.87296 
H          H       0.11512   0.36337   0.87296 
H          H       0.63663   0.75175   0.87296 
H          H       0.75970   0.00200   0.46328 
H          H       0.99800   0.75770   0.46328 
H          H       0.24230   0.24030   0.46328 
H          H       0.24030   0.99800   0.96328 
H          H       0.00200   0.24230   0.96328 
H          H       0.75770   0.75970   0.96328 
H          H       0.73736   0.03373   0.29735 
H          H       0.96627   0.70363   0.29735 
H          H       0.29637   0.26264   0.29735 
H          H       0.26264   0.96627   0.79735 
H          H       0.03373   0.29637   0.79735 
H          H       0.70363   0.73736   0.79735 
H          H       0.75011   0.05019   0.57411 
H          H       0.94981   0.69992   0.57411 
H          H       0.30008   0.24989   0.57411 
H          H       0.24989   0.94981   0.07411 
H          H       0.05019   0.30008   0.07411 
H          H       0.69992   0.75011   0.07411 
C          C       0.91591   0.14513   0.27616 
C          C       0.85487   0.77078   0.27616 
C          C       0.22922   0.08409   0.27616 
C          C       0.08409   0.85487   0.77616 
C          C       0.14513   0.22922   0.77616 
C          C       0.77078   0.91591   0.77616 
N          N       0.94187   0.08494   0.24760 
N          N       0.91506   0.85693   0.24760 
N          N       0.14307   0.05813   0.24760 
N          N       0.05813   0.91506   0.74760 
N          N       0.08494   0.14307   0.74760 
N          N       0.85693   0.94187   0.74760 
C          C       0.01785   0.05160   0.21070 
C          C       0.94840   0.96625   0.21070 
C          C       0.03375   0.98215   0.21070 
C          C       0.98215   0.94840   0.71070 
C          C       0.05160   0.03375   0.71070 
C          C       0.96625   0.01785   0.71070 
C          C       0.96573   0.01811   0.21212 
C          C       0.98189   0.94762   0.21212 
C          C       0.05238   0.03427   0.21212 
C          C       0.03427   0.98189   0.71212 
C          C       0.01811   0.05238   0.71212 
C          C       0.94762   0.96573   0.71212 
C          C       0.92832   0.03571   0.21549 
C          C       0.96429   0.89261   0.21549 
C          C       0.10739   0.07168   0.21549 
C          C       0.07168   0.96429   0.71549 
C          C       0.03571   0.10739   0.71549 
C          C       0.89261   0.92832   0.71549 
C          C       0.87638   0.15920   0.28287 
C          C       0.84080   0.71718   0.28287 
C          C       0.28282   0.12362   0.28287 
C          C       0.12362   0.84080   0.78287 
C          C       0.15920   0.28282   0.78287 
C          C       0.71718   0.87638   0.78287 
C          C       0.89051   0.20922   0.23955 
C          C       0.79078   0.68129   0.23955 
C          C       0.31871   0.10949   0.23955 
C          C       0.10949   0.79078   0.73955 
C          C       0.20922   0.31871   0.73955 
C          C       0.68129   0.89051   0.73955 
C          C       0.82595   0.12432   0.33285 
C          C       0.87568   0.70163   0.33285 
C          C       0.29837   0.17405   0.33285 
C          C       0.17405   0.87568   0.83285 
C          C       0.12432   0.29837   0.83285 
C          C       0.70163   0.82595   0.83285 
C          C       0.91913   0.31125   0.14337 
C          C       0.68875   0.60788   0.14337 
C          C       0.39212   0.08087   0.14337 
C          C       0.08087   0.68875   0.64337 
C          C       0.31125   0.39212   0.64337 
C          C       0.60788   0.91913   0.64337 
O          O       0.88392   0.00497   0.19174 
O          O       0.99503   0.87895   0.19174 
O          O       0.12105   0.11608   0.19174 
O          O       0.11608   0.99503   0.69174 
O          O       0.00497   0.12105   0.69174 
O          O       0.87895   0.88392   0.69174 
O          O       0.81323   0.07452   0.38221 
O          O       0.92548   0.73871   0.38221 
O          O       0.26129   0.18677   0.38221 
O          O       0.18677   0.92548   0.88221 
O          O       0.07452   0.26129   0.88221 
O          O       0.73871   0.81323   0.88221 
N          N       0.90479   0.09879   0.25536 
N          N       0.90121   0.80600   0.25536 
N          N       0.19400   0.09521   0.25536 
N          N       0.09521   0.90121   0.75536 
N          N       0.09879   0.19400   0.75536 
N          N       0.80600   0.90479   0.75536 
H          H       0.95498   0.17453   0.28142 
H          H       0.82547   0.78045   0.28142 
H          H       0.21955   0.04502   0.28142 
H          H       0.04502   0.82547   0.78142 
H          H       0.17453   0.21955   0.78142 
H          H       0.78045   0.95498   0.78142 
H          H       0.97909   0.11252   0.27240 
H          H       0.88748   0.86657   0.27240 
H          H       0.13343   0.02091   0.27240 
H          H       0.02091   0.88748   0.77240 
H          H       0.11252   0.13343   0.77240 
H          H       0.86657   0.97909   0.77240 
H          H       0.03245   0.09153   0.20642 
H          H       0.90847   0.94092   0.20642 
H          H       0.05908   0.96755   0.20642 
H          H       0.96755   0.90847   0.70642 
H          H       0.09153   0.05908   0.70642 
H          H       0.94092   0.03245   0.70642 
H          H       0.92951   0.23498   0.20384 
H          H       0.76502   0.69453   0.20384 
H          H       0.30547   0.07049   0.20384 
H          H       0.07049   0.76502   0.70384 
H          H       0.23498   0.30547   0.70384 
H          H       0.69453   0.92951   0.70384 
H          H       0.92214   0.34815   0.11283 
H          H       0.65185   0.57399   0.11283 
H          H       0.42601   0.07786   0.11283 
H          H       0.07786   0.65185   0.61283 
H          H       0.34815   0.42601   0.61283 
H          H       0.57399   0.92214   0.61283 
H          H       0.93030   0.29933   0.99882 
H          H       0.70067   0.63097   0.99882 
H          H       0.36903   0.06970   0.99882 
H          H       0.06970   0.70067   0.49882 
H          H       0.29933   0.36903   0.49882 
H          H       0.63097   0.93030   0.49882 
H          H       0.94477   0.31601   0.27461 
H          H       0.68399   0.62876   0.27461 
H          H       0.37124   0.05523   0.27461 
H          H       0.05523   0.68399   0.77461 
H          H       0.31601   0.37124   0.77461 
H          H       0.62876   0.94477   0.77461 
