data_crystal

_cell_length_a    30.52000
_cell_length_b    30.52000
_cell_length_c    7.46000
_cell_angle_alpha 90.00000
_cell_angle_beta  90.00000
_cell_angle_gamma 120.00000

_space_group_name_Hall 'P 1'
_space_group_name_H-M_alt  'P 1'

loop_
_symmetry_equiv_pos_as_xyz
'x,y,z' 

loop_
_atom_site_label
_atom_site_type_symbol
_atom_site_fract_x
_atom_site_fract_y
_atom_site_fract_z
C          C       0.42411   0.53009   0.26826 
C          C       0.46991   0.89402   0.26826 
C          C       0.10598   0.57589   0.26826 
C          C       0.57589   0.46991   0.26826 
C          C       0.53009   0.10598   0.26826 
C          C       0.89402   0.42411   0.26826 
N          N       0.39637   0.58797   0.20214 
N          N       0.41203   0.80840   0.20214 
N          N       0.19160   0.60363   0.20214 
N          N       0.60363   0.41203   0.20214 
N          N       0.58797   0.19160   0.20214 
N          N       0.80840   0.39637   0.20214 
C          C       0.31687   0.61491   0.12291 
C          C       0.38509   0.70196   0.12291 
C          C       0.29804   0.68313   0.12291 
C          C       0.68313   0.38509   0.12291 
C          C       0.61491   0.29804   0.12291 
C          C       0.70196   0.31687   0.12291 
C          C       0.36899   0.65005   0.12474 
C          C       0.34995   0.71894   0.12474 
C          C       0.28106   0.63101   0.12474 
C          C       0.63101   0.34995   0.12474 
C          C       0.65005   0.28106   0.12474 
C          C       0.71894   0.36899   0.12474 
C          C       0.40713   0.63335   0.12835 
C          C       0.36665   0.77378   0.12835 
C          C       0.22622   0.59287   0.12835 
C          C       0.59287   0.36665   0.12835 
C          C       0.63335   0.22622   0.12835 
C          C       0.77378   0.40713   0.12835 
C          C       0.46378   0.51577   0.27332 
C          C       0.48423   0.94801   0.27332 
C          C       0.05199   0.53622   0.27332 
C          C       0.53622   0.48423   0.27332 
C          C       0.51577   0.05199   0.27332 
C          C       0.94801   0.46378   0.27332 
C          C       0.44855   0.46418   0.27661 
C          C       0.53582   0.98437   0.27661 
C          C       0.01563   0.55145   0.27661 
C          C       0.55145   0.53582   0.27661 
C          C       0.46418   0.01563   0.27661 
C          C       0.98437   0.44855   0.27661 
C          C       0.51571   0.55224   0.28114 
C          C       0.44776   0.96347   0.28114 
C          C       0.03653   0.48429   0.28114 
C          C       0.48429   0.44776   0.28114 
C          C       0.55224   0.03653   0.28114 
C          C       0.96347   0.51571   0.28114 
C          C       0.57856   0.63784   0.36923 
C          C       0.36216   0.94072   0.36923 
C          C       0.05928   0.42144   0.36923 
C          C       0.42144   0.36216   0.36923 
C          C       0.63784   0.05928   0.36923 
C          C       0.94072   0.57856   0.36923 
O          O       0.44926   0.66116   0.06726 
O          O       0.33884   0.78810   0.06726 
O          O       0.21190   0.55074   0.06726 
O          O       0.55074   0.33884   0.06726 
O          O       0.66116   0.21190   0.06726 
O          O       0.78810   0.44926   0.06726 
O          O       0.52992   0.60380   0.29590 
O          O       0.39620   0.92612   0.29590 
O          O       0.07388   0.47008   0.29590 
O          O       0.47008   0.39620   0.29590 
O          O       0.60380   0.07388   0.29590 
O          O       0.92612   0.52992   0.29590 
N          N       0.43365   0.57386   0.20842 
N          N       0.42614   0.85979   0.20842 
N          N       0.14021   0.56635   0.20842 
N          N       0.56635   0.42614   0.20842 
N          N       0.57386   0.14021   0.20842 
N          N       0.85979   0.43365   0.20842 
H          H       0.38593   0.50259   0.30887 
H          H       0.49741   0.88334   0.30887 
H          H       0.11666   0.61407   0.30887 
H          H       0.61407   0.49741   0.30887 
H          H       0.50259   0.11666   0.30887 
H          H       0.88334   0.38593   0.30887 
H          H       0.36127   0.56458   0.26193 
H          H       0.43542   0.79669   0.26193 
H          H       0.20331   0.63873   0.26193 
H          H       0.63873   0.43542   0.26193 
H          H       0.56458   0.20331   0.26193 
H          H       0.79669   0.36127   0.26193 
H          H       0.30378   0.57480   0.11895 
H          H       0.42520   0.72898   0.11895 
H          H       0.27102   0.69622   0.11895 
H          H       0.69622   0.42520   0.11895 
H          H       0.57480   0.27102   0.11895 
H          H       0.72898   0.30378   0.11895 
H          H       0.40850   0.43691   0.27441 
H          H       0.56309   0.97159   0.27441 
H          H       0.02841   0.59150   0.27441 
H          H       0.59150   0.56309   0.27441 
H          H       0.43691   0.02841   0.27441 
H          H       0.97159   0.40850   0.27441 
H          H       0.57998   0.67380   0.40497 
H          H       0.32620   0.90618   0.40497 
H          H       0.09382   0.42002   0.40497 
H          H       0.42002   0.32620   0.40497 
H          H       0.67380   0.09382   0.40497 
H          H       0.90618   0.57998   0.40497 
H          H       0.60910   0.64652   0.27134 
H          H       0.35348   0.96258   0.27134 
H          H       0.03742   0.39090   0.27134 
H          H       0.39090   0.35348   0.27134 
H          H       0.64652   0.03742   0.27134 
H          H       0.96258   0.60910   0.27134 
H          H       0.58532   0.62158   0.49124 
H          H       0.37842   0.96374   0.49124 
H          H       0.03626   0.41468   0.49124 
H          H       0.41468   0.37842   0.49124 
H          H       0.62158   0.03626   0.49124 
H          H       0.96374   0.58532   0.49124 
C          C       0.42411   0.53009   0.76826 
C          C       0.46991   0.89402   0.76826 
C          C       0.10598   0.57589   0.76826 
C          C       0.57589   0.46991   0.76826 
C          C       0.53009   0.10598   0.76826 
C          C       0.89402   0.42411   0.76826 
N          N       0.39637   0.58797   0.70214 
N          N       0.41203   0.80840   0.70214 
N          N       0.19160   0.60363   0.70214 
N          N       0.60363   0.41203   0.70214 
N          N       0.58797   0.19160   0.70214 
N          N       0.80840   0.39637   0.70214 
C          C       0.31687   0.61491   0.62292 
C          C       0.38509   0.70196   0.62292 
C          C       0.29804   0.68313   0.62292 
C          C       0.68313   0.38509   0.62292 
C          C       0.61491   0.29804   0.62292 
C          C       0.70196   0.31687   0.62292 
C          C       0.36899   0.65005   0.62474 
C          C       0.34995   0.71894   0.62474 
C          C       0.28106   0.63101   0.62474 
C          C       0.63101   0.34995   0.62474 
C          C       0.65005   0.28106   0.62474 
C          C       0.71894   0.36899   0.62474 
C          C       0.40713   0.63335   0.62836 
C          C       0.36665   0.77378   0.62836 
C          C       0.22622   0.59287   0.62836 
C          C       0.59287   0.36665   0.62836 
C          C       0.63335   0.22622   0.62836 
C          C       0.77378   0.40713   0.62836 
C          C       0.46378   0.51577   0.77332 
C          C       0.48423   0.94801   0.77332 
C          C       0.05199   0.53622   0.77332 
C          C       0.53622   0.48423   0.77332 
C          C       0.51577   0.05199   0.77332 
C          C       0.94801   0.46378   0.77332 
C          C       0.44855   0.46418   0.77662 
C          C       0.53582   0.98437   0.77662 
C          C       0.01563   0.55145   0.77662 
C          C       0.55145   0.53582   0.77662 
C          C       0.46418   0.01563   0.77662 
C          C       0.98437   0.44855   0.77662 
C          C       0.51571   0.55224   0.78114 
C          C       0.44776   0.96347   0.78114 
C          C       0.03653   0.48429   0.78114 
C          C       0.48429   0.44776   0.78114 
C          C       0.55224   0.03653   0.78114 
C          C       0.96347   0.51571   0.78114 
C          C       0.57856   0.63784   0.86923 
C          C       0.36216   0.94072   0.86923 
C          C       0.05928   0.42144   0.86923 
C          C       0.42144   0.36216   0.86923 
C          C       0.63784   0.05928   0.86923 
C          C       0.94072   0.57856   0.86923 
O          O       0.44926   0.66116   0.56726 
O          O       0.33884   0.78810   0.56726 
O          O       0.21190   0.55074   0.56726 
O          O       0.55074   0.33884   0.56726 
O          O       0.66116   0.21190   0.56726 
O          O       0.78810   0.44926   0.56726 
O          O       0.52992   0.60380   0.79590 
O          O       0.39620   0.92612   0.79590 
O          O       0.07388   0.47008   0.79590 
O          O       0.47008   0.39620   0.79590 
O          O       0.60380   0.07388   0.79590 
O          O       0.92612   0.52992   0.79590 
N          N       0.43365   0.57386   0.70842 
N          N       0.42614   0.85979   0.70842 
N          N       0.14021   0.56635   0.70842 
N          N       0.56635   0.42614   0.70842 
N          N       0.57386   0.14021   0.70842 
N          N       0.85979   0.43365   0.70842 
H          H       0.38593   0.50259   0.80887 
H          H       0.49741   0.88334   0.80887 
H          H       0.11666   0.61407   0.80887 
H          H       0.61407   0.49741   0.80887 
H          H       0.50259   0.11666   0.80887 
H          H       0.88334   0.38593   0.80887 
H          H       0.36127   0.56458   0.76193 
H          H       0.43542   0.79669   0.76193 
H          H       0.20331   0.63873   0.76193 
H          H       0.63873   0.43542   0.76193 
H          H       0.56458   0.20331   0.76193 
H          H       0.79669   0.36127   0.76193 
H          H       0.30378   0.57480   0.61895 
H          H       0.42520   0.72898   0.61895 
H          H       0.27102   0.69622   0.61895 
H          H       0.69622   0.42520   0.61895 
H          H       0.57480   0.27102   0.61895 
H          H       0.72898   0.30378   0.61895 
H          H       0.40850   0.43691   0.77441 
H          H       0.56309   0.97159   0.77441 
H          H       0.02841   0.59150   0.77441 
H          H       0.59150   0.56309   0.77441 
H          H       0.43691   0.02841   0.77441 
H          H       0.97159   0.40850   0.77441 
H          H       0.57998   0.67380   0.90497 
H          H       0.32620   0.90618   0.90497 
H          H       0.09382   0.42002   0.90497 
H          H       0.42002   0.32620   0.90497 
H          H       0.67380   0.09382   0.90497 
H          H       0.90618   0.57998   0.90497 
H          H       0.60910   0.64652   0.77134 
H          H       0.35348   0.96258   0.77134 
H          H       0.03742   0.39090   0.77134 
H          H       0.39090   0.35348   0.77134 
H          H       0.64652   0.03742   0.77134 
H          H       0.96258   0.60910   0.77134 
H          H       0.58532   0.62158   0.99124 
H          H       0.37842   0.96374   0.99124 
H          H       0.03626   0.41468   0.99124 
H          H       0.41468   0.37842   0.99124 
H          H       0.62158   0.03626   0.99124 
H          H       0.96374   0.58532   0.99124 
