data_crystal

_cell_length_a    31.01000
_cell_length_b    31.01000
_cell_length_c    6.44000
_cell_angle_alpha 90.00000
_cell_angle_beta  90.00000
_cell_angle_gamma 120.00000

_space_group_name_Hall 'P 1'
_space_group_name_H-M_alt  'P 1'

loop_
_symmetry_equiv_pos_as_xyz
'x,y,z' 

loop_
_atom_site_label
_atom_site_type_symbol
_atom_site_fract_x
_atom_site_fract_y
_atom_site_fract_z
C          C       0.08951   0.86025   0.25000 
C          C       0.13975   0.22926   0.25000 
C          C       0.77074   0.91049   0.25000 
C          C       0.91049   0.13975   0.75000 
C          C       0.86025   0.77074   0.75000 
C          C       0.22926   0.08951   0.75000 
N          N       0.06123   0.91830   0.25000 
N          N       0.08170   0.14293   0.25000 
N          N       0.85707   0.93877   0.25000 
N          N       0.93877   0.08170   0.75000 
N          N       0.91830   0.85707   0.75000 
N          N       0.14293   0.06123   0.75000 
C          C       0.98356   0.94908   0.25000 
C          C       0.05092   0.03448   0.25000 
C          C       0.96552   0.01644   0.25000 
C          C       0.01644   0.05092   0.75000 
C          C       0.94908   0.96552   0.75000 
C          C       0.03448   0.98356   0.75000 
C          C       0.03507   0.98330   0.25000 
C          C       0.01670   0.05177   0.25000 
C          C       0.94823   0.96493   0.25000 
C          C       0.96493   0.01670   0.75000 
C          C       0.98330   0.94823   0.75000 
C          C       0.05177   0.03507   0.75000 
C          C       0.07342   0.96734   0.25000 
C          C       0.03266   0.10608   0.25000 
C          C       0.89392   0.92658   0.25000 
C          C       0.92658   0.03266   0.75000 
C          C       0.96734   0.89392   0.75000 
C          C       0.10608   0.07342   0.75000 
C          C       0.12975   0.84766   0.25000 
C          C       0.15234   0.28209   0.25000 
C          C       0.71791   0.87025   0.25000 
C          C       0.87025   0.15234   0.75000 
C          C       0.84766   0.71791   0.75000 
C          C       0.28209   0.12975   0.75000 
C          C       0.11610   0.79717   0.25000 
C          C       0.20283   0.31893   0.25000 
C          C       0.68107   0.88390   0.25000 
C          C       0.88390   0.20283   0.75000 
C          C       0.79717   0.68107   0.75000 
C          C       0.31893   0.11610   0.75000 
C          C       0.18078   0.88419   0.25000 
C          C       0.11581   0.29659   0.25000 
C          C       0.70341   0.81922   0.25000 
C          C       0.81922   0.11581   0.75000 
C          C       0.88419   0.70341   0.75000 
C          C       0.29659   0.18078   0.75000 
O          O       0.11742   0.99930   0.25000 
O          O       0.00070   0.11812   0.25000 
O          O       0.88188   0.88258   0.25000 
O          O       0.88258   0.00070   0.75000 
O          O       0.99930   0.88188   0.75000 
O          O       0.11812   0.11742   0.75000 
O          O       0.19552   0.93484   0.25000 
O          O       0.06516   0.26068   0.25000 
O          O       0.73932   0.80448   0.25000 
O          O       0.80448   0.06516   0.75000 
O          O       0.93484   0.73932   0.75000 
O          O       0.26068   0.19552   0.75000 
N          N       0.09914   0.90603   0.25000 
N          N       0.09397   0.19311   0.25000 
N          N       0.80689   0.90086   0.25000 
N          N       0.90086   0.09397   0.75000 
N          N       0.90603   0.80689   0.75000 
N          N       0.19311   0.09914   0.75000 
H          H       0.05108   0.83028   0.25000 
H          H       0.16972   0.22080   0.25000 
H          H       0.77920   0.94892   0.25000 
H          H       0.94892   0.16972   0.75000 
H          H       0.83028   0.77920   0.75000 
H          H       0.22080   0.05108   0.75000 
H          H       0.02438   0.88945   0.25000 
H          H       0.11055   0.13493   0.25000 
H          H       0.86507   0.97562   0.25000 
H          H       0.97562   0.11055   0.75000 
H          H       0.88945   0.86507   0.75000 
H          H       0.13493   0.02438   0.75000 
H          H       0.96999   0.90966   0.25000 
H          H       0.09034   0.06033   0.25000 
H          H       0.93967   0.03001   0.25000 
H          H       0.03001   0.09034   0.75000 
H          H       0.90966   0.93967   0.75000 
H          H       0.06033   0.96999   0.75000 
H          H       0.07702   0.76893   0.25000 
H          H       0.23107   0.30809   0.25000 
H          H       0.69191   0.92298   0.25000 
H          H       0.92298   0.23107   0.75000 
H          H       0.76893   0.69191   0.75000 
H          H       0.30809   0.07702   0.75000 
H          H       0.23293   0.95787   0.25000 
H          H       0.04213   0.27506   0.25000 
H          H       0.72494   0.76707   0.25000 
H          H       0.76707   0.04213   0.75000 
H          H       0.95787   0.72494   0.75000 
H          H       0.27506   0.23293   0.75000 
C          C       0.24347   0.80634   0.25000 
C          C       0.19366   0.43713   0.25000 
C          C       0.56287   0.75653   0.25000 
C          C       0.75653   0.19366   0.75000 
C          C       0.80634   0.56287   0.75000 
C          C       0.43713   0.24347   0.75000 
N          N       0.27189   0.74837   0.25000 
N          N       0.25163   0.52352   0.25000 
N          N       0.47648   0.72811   0.25000 
N          N       0.72811   0.25163   0.75000 
N          N       0.74837   0.47648   0.75000 
N          N       0.52352   0.27189   0.75000 
C          C       0.34975   0.71761   0.25000 
C          C       0.28239   0.63214   0.25000 
C          C       0.36786   0.65025   0.25000 
C          C       0.65025   0.28239   0.75000 
C          C       0.71761   0.36786   0.75000 
C          C       0.63214   0.34975   0.75000 
C          C       0.29822   0.68336   0.25000 
C          C       0.31664   0.61486   0.25000 
C          C       0.38514   0.70178   0.25000 
C          C       0.70178   0.31664   0.75000 
C          C       0.68336   0.38514   0.75000 
C          C       0.61486   0.29822   0.75000 
C          C       0.25980   0.69933   0.25000 
C          C       0.30067   0.56047   0.25000 
C          C       0.43953   0.74020   0.25000 
C          C       0.74020   0.30067   0.75000 
C          C       0.69933   0.43953   0.75000 
C          C       0.56047   0.25980   0.75000 
C          C       0.20320   0.81893   0.25000 
C          C       0.18107   0.38427   0.25000 
C          C       0.61573   0.79680   0.25000 
C          C       0.79680   0.18107   0.75000 
C          C       0.81893   0.61573   0.75000 
C          C       0.38427   0.20320   0.75000 
C          C       0.21684   0.86942   0.25000 
C          C       0.13058   0.34742   0.25000 
C          C       0.65258   0.78316   0.25000 
C          C       0.78316   0.13058   0.75000 
C          C       0.86942   0.65258   0.75000 
C          C       0.34742   0.21684   0.75000 
C          C       0.15217   0.78241   0.25000 
C          C       0.21759   0.36976   0.25000 
C          C       0.63024   0.84783   0.25000 
C          C       0.84783   0.21759   0.75000 
C          C       0.78241   0.63024   0.75000 
C          C       0.36976   0.15217   0.75000 
O          O       0.21582   0.66733   0.25000 
O          O       0.33267   0.54849   0.25000 
O          O       0.45151   0.78418   0.25000 
O          O       0.78418   0.33267   0.75000 
O          O       0.66733   0.45151   0.75000 
O          O       0.54849   0.21582   0.75000 
O          O       0.13743   0.73176   0.25000 
O          O       0.26824   0.40567   0.25000 
O          O       0.59433   0.86257   0.25000 
O          O       0.86257   0.26824   0.75000 
O          O       0.73176   0.59433   0.75000 
O          O       0.40567   0.13743   0.75000 
N          N       0.23391   0.76057   0.25000 
N          N       0.23943   0.47334   0.25000 
N          N       0.52666   0.76609   0.25000 
N          N       0.76609   0.23943   0.75000 
N          N       0.76057   0.52666   0.75000 
N          N       0.47334   0.23391   0.75000 
H          H       0.28187   0.83635   0.25000 
H          H       0.16365   0.44552   0.25000 
H          H       0.55448   0.71813   0.25000 
H          H       0.71813   0.16365   0.75000 
H          H       0.83635   0.55448   0.75000 
H          H       0.44552   0.28187   0.75000 
H          H       0.30872   0.77724   0.25000 
H          H       0.22276   0.53148   0.25000 
H          H       0.46852   0.69128   0.25000 
H          H       0.69128   0.22276   0.75000 
H          H       0.77724   0.46852   0.75000 
H          H       0.53148   0.30872   0.75000 
H          H       0.36327   0.75703   0.25000 
H          H       0.24297   0.60624   0.25000 
H          H       0.39376   0.63673   0.25000 
H          H       0.63673   0.24297   0.75000 
H          H       0.75703   0.39376   0.75000 
H          H       0.60624   0.36327   0.75000 
H          H       0.25593   0.89766   0.25000 
H          H       0.10234   0.35827   0.25000 
H          H       0.64173   0.74407   0.25000 
H          H       0.74407   0.10234   0.75000 
H          H       0.89766   0.64173   0.75000 
H          H       0.35827   0.25593   0.75000 
H          H       0.10002   0.70874   0.25000 
H          H       0.29126   0.39128   0.25000 
H          H       0.60872   0.89998   0.25000 
H          H       0.89998   0.29126   0.75000 
H          H       0.70874   0.60872   0.75000 
H          H       0.39128   0.10002   0.75000 
