data_crystal

_cell_length_a    31.00000
_cell_length_b    31.00000
_cell_length_c    6.86000
_cell_angle_alpha 90.00000
_cell_angle_beta  90.00000
_cell_angle_gamma 120.00000

_space_group_name_Hall 'P 1'
_space_group_name_H-M_alt  'P 1'

loop_
_symmetry_equiv_pos_as_xyz
'x,y,z' 

loop_
_atom_site_label
_atom_site_type_symbol
_atom_site_fract_x
_atom_site_fract_y
_atom_site_fract_z
C          C       0.42300   0.52690   0.25000 
C          C       0.47310   0.89610   0.25000 
C          C       0.10390   0.57700   0.25000 
C          C       0.57700   0.47310   0.25000 
C          C       0.52690   0.10390   0.25000 
C          C       0.89610   0.42300   0.25000 
N          N       0.39463   0.58490   0.25000 
N          N       0.41510   0.80973   0.25000 
N          N       0.19027   0.60537   0.25000 
N          N       0.60537   0.41510   0.25000 
N          N       0.58490   0.19027   0.25000 
N          N       0.80973   0.39463   0.25000 
C          C       0.31688   0.61572   0.25000 
C          C       0.38428   0.70116   0.25000 
C          C       0.29884   0.68312   0.25000 
C          C       0.68312   0.38428   0.25000 
C          C       0.61572   0.29884   0.25000 
C          C       0.70116   0.31688   0.25000 
C          C       0.36840   0.64994   0.25000 
C          C       0.35006   0.71846   0.25000 
C          C       0.28154   0.63160   0.25000 
C          C       0.63160   0.35006   0.25000 
C          C       0.64994   0.28154   0.25000 
C          C       0.71846   0.36840   0.25000 
C          C       0.40677   0.63394   0.25000 
C          C       0.36606   0.77283   0.25000 
C          C       0.22717   0.59323   0.25000 
C          C       0.59323   0.36606   0.25000 
C          C       0.63394   0.22717   0.25000 
C          C       0.77283   0.40677   0.25000 
C          C       0.46326   0.51434   0.25000 
C          C       0.48566   0.94892   0.25000 
C          C       0.05108   0.53674   0.25000 
C          C       0.53674   0.48566   0.25000 
C          C       0.51434   0.05108   0.25000 
C          C       0.94892   0.46326   0.25000 
C          C       0.44964   0.46386   0.25000 
C          C       0.53614   0.98578   0.25000 
C          C       0.01422   0.55036   0.25000 
C          C       0.55036   0.53614   0.25000 
C          C       0.46386   0.01422   0.25000 
C          C       0.98578   0.44964   0.25000 
C          C       0.51427   0.55088   0.25000 
C          C       0.44912   0.96339   0.25000 
C          C       0.03661   0.48573   0.25000 
C          C       0.48573   0.44912   0.25000 
C          C       0.55088   0.03661   0.25000 
C          C       0.96339   0.51427   0.25000 
O          O       0.45078   0.66591   0.25000 
O          O       0.33409   0.78487   0.25000 
O          O       0.21513   0.54922   0.25000 
O          O       0.54922   0.33409   0.25000 
O          O       0.66591   0.21513   0.25000 
O          O       0.78487   0.45078   0.25000 
O          O       0.52897   0.60152   0.25000 
O          O       0.39848   0.92745   0.25000 
O          O       0.07255   0.47103   0.25000 
O          O       0.47103   0.39848   0.25000 
O          O       0.60152   0.07255   0.25000 
O          O       0.92745   0.52897   0.25000 
N          N       0.43259   0.57268   0.25000 
N          N       0.42732   0.85991   0.25000 
N          N       0.14009   0.56741   0.25000 
N          N       0.56741   0.42732   0.25000 
N          N       0.57268   0.14009   0.25000 
N          N       0.85991   0.43259   0.25000 
H          H       0.38459   0.49690   0.25000 
H          H       0.50310   0.88769   0.25000 
H          H       0.11231   0.61541   0.25000 
H          H       0.61541   0.50310   0.25000 
H          H       0.49690   0.11231   0.25000 
H          H       0.88769   0.38459   0.25000 
H          H       0.35779   0.55603   0.25000 
H          H       0.44397   0.80176   0.25000 
H          H       0.19824   0.64221   0.25000 
H          H       0.64221   0.44397   0.25000 
H          H       0.55603   0.19824   0.25000 
H          H       0.80176   0.35779   0.25000 
H          H       0.30332   0.57630   0.25000 
H          H       0.42370   0.72702   0.25000 
H          H       0.27298   0.69668   0.25000 
H          H       0.69668   0.42370   0.25000 
H          H       0.57630   0.27298   0.25000 
H          H       0.72702   0.30332   0.25000 
H          H       0.41056   0.43560   0.25000 
H          H       0.56440   0.97496   0.25000 
H          H       0.02504   0.58944   0.25000 
H          H       0.58944   0.56440   0.25000 
H          H       0.43560   0.02504   0.25000 
H          H       0.97496   0.41056   0.25000 
H          H       0.56639   0.62454   0.25000 
H          H       0.37546   0.94185   0.25000 
H          H       0.05815   0.43361   0.25000 
H          H       0.43361   0.37546   0.25000 
H          H       0.62454   0.05815   0.25000 
H          H       0.94185   0.56639   0.25000 
C          C       0.42300   0.52690   0.75000 
C          C       0.47310   0.89610   0.75000 
C          C       0.10390   0.57700   0.75000 
C          C       0.57700   0.47310   0.75000 
C          C       0.52690   0.10390   0.75000 
C          C       0.89610   0.42300   0.75000 
N          N       0.39463   0.58490   0.75000 
N          N       0.41510   0.80973   0.75000 
N          N       0.19027   0.60537   0.75000 
N          N       0.60537   0.41510   0.75000 
N          N       0.58490   0.19027   0.75000 
N          N       0.80973   0.39463   0.75000 
C          C       0.31688   0.61572   0.75000 
C          C       0.38428   0.70116   0.75000 
C          C       0.29884   0.68312   0.75000 
C          C       0.68312   0.38428   0.75000 
C          C       0.61572   0.29884   0.75000 
C          C       0.70116   0.31688   0.75000 
C          C       0.36840   0.64994   0.75000 
C          C       0.35006   0.71846   0.75000 
C          C       0.28154   0.63160   0.75000 
C          C       0.63160   0.35006   0.75000 
C          C       0.64994   0.28154   0.75000 
C          C       0.71846   0.36840   0.75000 
C          C       0.40677   0.63394   0.75000 
C          C       0.36606   0.77283   0.75000 
C          C       0.22717   0.59323   0.75000 
C          C       0.59323   0.36606   0.75000 
C          C       0.63394   0.22717   0.75000 
C          C       0.77283   0.40677   0.75000 
C          C       0.46326   0.51434   0.75000 
C          C       0.48566   0.94892   0.75000 
C          C       0.05108   0.53674   0.75000 
C          C       0.53674   0.48566   0.75000 
C          C       0.51434   0.05108   0.75000 
C          C       0.94892   0.46326   0.75000 
C          C       0.44964   0.46386   0.75000 
C          C       0.53614   0.98578   0.75000 
C          C       0.01422   0.55036   0.75000 
C          C       0.55036   0.53614   0.75000 
C          C       0.46386   0.01422   0.75000 
C          C       0.98578   0.44964   0.75000 
C          C       0.51427   0.55088   0.75000 
C          C       0.44912   0.96339   0.75000 
C          C       0.03661   0.48573   0.75000 
C          C       0.48573   0.44912   0.75000 
C          C       0.55088   0.03661   0.75000 
C          C       0.96339   0.51427   0.75000 
O          O       0.45078   0.66591   0.75000 
O          O       0.33409   0.78487   0.75000 
O          O       0.21513   0.54922   0.75000 
O          O       0.54922   0.33409   0.75000 
O          O       0.66591   0.21513   0.75000 
O          O       0.78487   0.45078   0.75000 
O          O       0.52897   0.60152   0.75000 
O          O       0.39848   0.92745   0.75000 
O          O       0.07255   0.47103   0.75000 
O          O       0.47103   0.39848   0.75000 
O          O       0.60152   0.07255   0.75000 
O          O       0.92745   0.52897   0.75000 
N          N       0.43259   0.57268   0.75000 
N          N       0.42732   0.85991   0.75000 
N          N       0.14009   0.56741   0.75000 
N          N       0.56741   0.42732   0.75000 
N          N       0.57268   0.14009   0.75000 
N          N       0.85991   0.43259   0.75000 
H          H       0.38459   0.49690   0.75000 
H          H       0.50310   0.88769   0.75000 
H          H       0.11231   0.61541   0.75000 
H          H       0.61541   0.50310   0.75000 
H          H       0.49690   0.11231   0.75000 
H          H       0.88769   0.38459   0.75000 
H          H       0.35779   0.55603   0.75000 
H          H       0.44397   0.80176   0.75000 
H          H       0.19824   0.64221   0.75000 
H          H       0.64221   0.44397   0.75000 
H          H       0.55603   0.19824   0.75000 
H          H       0.80176   0.35779   0.75000 
H          H       0.30332   0.57630   0.75000 
H          H       0.42370   0.72702   0.75000 
H          H       0.27298   0.69668   0.75000 
H          H       0.69668   0.42370   0.75000 
H          H       0.57630   0.27298   0.75000 
H          H       0.72702   0.30332   0.75000 
H          H       0.41056   0.43560   0.75000 
H          H       0.56440   0.97496   0.75000 
H          H       0.02504   0.58944   0.75000 
H          H       0.58944   0.56440   0.75000 
H          H       0.43560   0.02504   0.75000 
H          H       0.97496   0.41056   0.75000 
H          H       0.56639   0.62454   0.75000 
H          H       0.37546   0.94185   0.75000 
H          H       0.05815   0.43361   0.75000 
H          H       0.43361   0.37546   0.75000 
H          H       0.62454   0.05815   0.75000 
H          H       0.94185   0.56639   0.75000 
