data_crystal

_cell_length_a    36.47570
_cell_length_b    36.47570
_cell_length_c    8.39960
_cell_angle_alpha 90.00000
_cell_angle_beta  90.00000
_cell_angle_gamma 90.00000

_space_group_name_Hall 'P 1'
_space_group_name_H-M_alt  'P 1'

loop_
_symmetry_equiv_pos_as_xyz
'x,y,z' 

loop_
_atom_site_label
_atom_site_type_symbol
_atom_site_fract_x
_atom_site_fract_y
_atom_site_fract_z
C          C       0.47214   0.88465   0.25461 
C          C       0.52786   0.11535   0.25461 
C          C       0.11535   0.47214   0.25461 
C          C       0.88465   0.52786   0.25461 
C          C       0.50913   0.88092   0.24541 
C          C       0.49087   0.11908   0.24541 
C          C       0.11908   0.50913   0.24541 
C          C       0.88092   0.49087   0.24541 
C          C       0.52479   0.91728   0.24882 
C          C       0.47521   0.08272   0.24882 
C          C       0.08272   0.52479   0.24882 
C          C       0.91728   0.47521   0.24882 
C          C       0.46375   0.92341   0.25083 
C          C       0.53625   0.07659   0.25083 
C          C       0.07659   0.46375   0.25083 
C          C       0.92341   0.53625   0.25083 
N          N       0.49649   0.94266   0.25000 
N          N       0.50351   0.05734   0.25000 
N          N       0.05734   0.49649   0.25000 
N          N       0.94266   0.50351   0.25000 
C          C       0.42809   0.93904   0.24974 
C          C       0.57191   0.06096   0.24974 
C          C       0.06096   0.42809   0.24974 
C          C       0.93904   0.57191   0.24974 
C          C       0.42091   0.97727   0.24896 
C          C       0.57909   0.02273   0.24896 
C          C       0.02273   0.42091   0.24896 
C          C       0.97727   0.57909   0.24896 
N          N       0.44494   0.00585   0.24996 
N          N       0.55506   0.99415   0.24996 
N          N       0.99415   0.44494   0.24996 
N          N       0.00585   0.55506   0.24996 
C          C       0.42706   0.03860   0.25066 
C          C       0.57294   0.96140   0.25066 
C          C       0.96140   0.42706   0.25066 
C          C       0.03860   0.57294   0.25066 
C          C       0.38466   0.99306   0.24557 
C          C       0.61534   0.00694   0.24557 
C          C       0.00694   0.38466   0.24557 
C          C       0.99306   0.61534   0.24557 
C          C       0.38837   0.03004   0.25435 
C          C       0.61163   0.96996   0.25435 
C          C       0.96996   0.38837   0.25435 
C          C       0.03004   0.61163   0.25435 
C          C       0.44187   0.07466   0.24947 
C          C       0.55813   0.92534   0.24947 
C          C       0.92534   0.44187   0.24947 
C          C       0.07466   0.55813   0.24947 
H          H       0.45464   0.86053   0.26780 
H          H       0.54536   0.13947   0.26780 
H          H       0.13947   0.45464   0.26780 
H          H       0.86053   0.54536   0.26780 
H          H       0.52175   0.85390   0.23211 
H          H       0.47825   0.14610   0.23211 
H          H       0.14610   0.52175   0.23211 
H          H       0.85390   0.47825   0.23211 
H          H       0.47317   0.00307   0.24986 
H          H       0.52683   0.99693   0.24986 
H          H       0.99693   0.47317   0.24986 
H          H       0.00307   0.52683   0.24986 
H          H       0.35771   0.98035   0.23170 
H          H       0.64229   0.01965   0.23170 
H          H       0.01965   0.35771   0.23170 
H          H       0.98035   0.64229   0.23170 
H          H       0.36434   0.04761   0.26804 
H          H       0.63566   0.95239   0.26804 
H          H       0.95239   0.36434   0.26804 
H          H       0.04761   0.63566   0.26804 
C          C       0.60820   0.08604   0.25239 
C          C       0.39180   0.91396   0.25239 
C          C       0.91396   0.60820   0.25239 
C          C       0.08604   0.39180   0.25239 
C          C       0.60532   0.12174   0.18780 
C          C       0.39468   0.87826   0.18780 
C          C       0.87826   0.60532   0.18780 
C          C       0.12174   0.39468   0.18780 
C          C       0.63351   0.14633   0.20361 
C          C       0.36649   0.85367   0.20361 
C          C       0.85367   0.63351   0.20361 
C          C       0.14633   0.36649   0.20361 
C          C       0.67183   0.10129   0.33091 
C          C       0.32817   0.89871   0.33091 
C          C       0.89871   0.67183   0.33091 
C          C       0.10129   0.32817   0.33091 
C          C       0.64242   0.07720   0.32450 
C          C       0.35758   0.92280   0.32450 
C          C       0.92280   0.64242   0.32450 
C          C       0.07720   0.35758   0.32450 
H          H       0.58171   0.13071   0.11673 
H          H       0.41829   0.86929   0.11673 
H          H       0.86929   0.58171   0.11673 
H          H       0.13071   0.41829   0.11673 
H          H       0.62818   0.17371   0.15776 
H          H       0.37182   0.82629   0.15776 
H          H       0.82629   0.62818   0.15776 
H          H       0.17371   0.37182   0.15776 
H          H       0.69795   0.09236   0.38375 
H          H       0.30205   0.90764   0.38375 
H          H       0.90764   0.69795   0.38375 
H          H       0.09236   0.30205   0.38375 
H          H       0.64596   0.05093   0.38693 
H          H       0.35404   0.94907   0.38693 
H          H       0.94907   0.64596   0.38693 
H          H       0.05093   0.35404   0.38693 
C          C       0.72370   0.22596   0.23805 
C          C       0.27630   0.77404   0.23805 
C          C       0.77404   0.72370   0.23805 
C          C       0.22596   0.27630   0.23805 
C          C       0.71952   0.26208   0.18210 
C          C       0.28048   0.73792   0.18210 
C          C       0.73792   0.71952   0.18210 
C          C       0.26208   0.28048   0.18210 
C          C       0.74834   0.28633   0.19329 
C          C       0.25166   0.71367   0.19329 
C          C       0.71367   0.74834   0.19329 
C          C       0.28633   0.25166   0.19329 
C          C       0.78594   0.23865   0.31664 
C          C       0.21406   0.76135   0.31664 
C          C       0.76135   0.78594   0.31664 
C          C       0.23865   0.21406   0.31664 
C          C       0.75713   0.21440   0.30546 
C          C       0.24287   0.78560   0.30546 
C          C       0.78560   0.75713   0.30546 
C          C       0.21440   0.24287   0.30546 
H          H       0.69351   0.27133   0.12935 
H          H       0.30649   0.72867   0.12935 
H          H       0.72867   0.69351   0.12935 
H          H       0.27133   0.30649   0.12935 
H          H       0.74436   0.31438   0.14872 
H          H       0.25564   0.68562   0.14872 
H          H       0.68562   0.74436   0.14872 
H          H       0.31438   0.25564   0.14872 
H          H       0.81195   0.22941   0.36941 
H          H       0.18805   0.77059   0.36941 
H          H       0.77059   0.81195   0.36941 
H          H       0.22941   0.18805   0.36941 
H          H       0.76110   0.18635   0.35005 
H          H       0.23890   0.81365   0.35005 
H          H       0.81365   0.76110   0.35005 
H          H       0.18635   0.23890   0.35005 
C          C       0.87211   0.35429   0.29491 
C          C       0.12789   0.64571   0.29491 
C          C       0.64571   0.87211   0.29491 
C          C       0.35429   0.12789   0.29491 
C          C       0.90036   0.37882   0.31071 
C          C       0.09964   0.62118   0.31071 
C          C       0.62118   0.90036   0.31071 
C          C       0.37882   0.09964   0.31071 
C          C       0.89742   0.41451   0.24635 
C          C       0.10258   0.58549   0.24635 
C          C       0.58549   0.89742   0.24635 
C          C       0.41451   0.10258   0.24635 
C          C       0.86319   0.42331   0.17408 
C          C       0.13681   0.57669   0.17408 
C          C       0.57669   0.86319   0.17408 
C          C       0.42331   0.13681   0.17408 
C          C       0.83373   0.39930   0.16764 
C          C       0.16627   0.60070   0.16764 
C          C       0.60070   0.83373   0.16764 
C          C       0.39930   0.16627   0.16764 
H          H       0.87743   0.32693   0.34074 
H          H       0.12257   0.67307   0.34074 
H          H       0.67307   0.87743   0.34074 
H          H       0.32693   0.12257   0.34074 
H          H       0.92397   0.36979   0.38157 
H          H       0.07603   0.63021   0.38157 
H          H       0.63021   0.92397   0.38157 
H          H       0.36979   0.07603   0.38157 
H          H       0.85970   0.44958   0.11146 
H          H       0.14030   0.55042   0.11146 
H          H       0.55042   0.85970   0.11146 
H          H       0.44958   0.14030   0.11146 
H          H       0.80759   0.40821   0.11478 
H          H       0.19241   0.59179   0.11478 
H          H       0.59179   0.80759   0.11478 
H          H       0.40821   0.19241   0.11478 
C          C       0.69339   0.20074   0.22590 
C          C       0.30661   0.79926   0.22590 
C          C       0.79926   0.69339   0.22590 
C          C       0.20074   0.30661   0.22590 
C          C       0.69607   0.16498   0.27893 
C          C       0.30393   0.83502   0.27893 
C          C       0.83502   0.69607   0.27893 
C          C       0.16498   0.30393   0.27893 
C          C       0.66762   0.13743   0.27228 
C          C       0.33238   0.86257   0.27228 
C          C       0.86257   0.66762   0.27228 
C          C       0.13743   0.33238   0.27228 
H          H       0.72200   0.15625   0.33083 
H          H       0.27800   0.84375   0.33083 
H          H       0.84375   0.72200   0.33083 
H          H       0.15625   0.27800   0.33083 
C          C       0.81210   0.29995   0.27286 
C          C       0.18790   0.70005   0.27286 
C          C       0.70005   0.81210   0.27286 
C          C       0.29995   0.18790   0.27286 
C          C       0.83796   0.36318   0.22642 
C          C       0.16204   0.63682   0.22642 
C          C       0.63682   0.83796   0.22642 
C          C       0.36318   0.16204   0.22642 
C          C       0.80947   0.33569   0.21981 
C          C       0.19053   0.66431   0.21981 
C          C       0.66431   0.80947   0.21981 
C          C       0.33569   0.19053   0.21981 
C          C       0.78177   0.27476   0.26069 
C          C       0.21823   0.72524   0.26069 
C          C       0.72524   0.78177   0.26069 
C          C       0.27476   0.21823   0.26069 
H          H       0.78354   0.34445   0.16794 
H          H       0.21646   0.65555   0.16794 
H          H       0.65555   0.78354   0.16794 
H          H       0.34445   0.21646   0.16794 
N          N       0.63414   0.22744   0.09818 
N          N       0.36586   0.77256   0.09818 
N          N       0.77256   0.63414   0.09818 
N          N       0.22744   0.36586   0.09818 
C          C       0.66106   0.21633   0.15489 
C          C       0.33894   0.78367   0.15489 
C          C       0.78367   0.66106   0.15489 
C          C       0.21633   0.33894   0.15489 
C          C       0.84443   0.28436   0.34391 
C          C       0.15557   0.71564   0.34391 
C          C       0.71564   0.84443   0.34391 
C          C       0.28436   0.15557   0.34391 
N          N       0.87135   0.27325   0.40063 
N          N       0.12865   0.72675   0.40063 
N          N       0.72675   0.87135   0.40063 
N          N       0.27325   0.12865   0.40063 
C          C       0.47214   0.88465   0.75462 
C          C       0.52786   0.11535   0.75462 
C          C       0.11535   0.47214   0.75462 
C          C       0.88465   0.52786   0.75462 
C          C       0.50913   0.88092   0.74541 
C          C       0.49087   0.11908   0.74541 
C          C       0.11908   0.50913   0.74541 
C          C       0.88092   0.49087   0.74541 
C          C       0.52479   0.91728   0.74882 
C          C       0.47521   0.08272   0.74882 
C          C       0.08272   0.52479   0.74882 
C          C       0.91728   0.47521   0.74882 
C          C       0.46375   0.92341   0.75084 
C          C       0.53625   0.07659   0.75084 
C          C       0.07659   0.46375   0.75084 
C          C       0.92341   0.53625   0.75084 
N          N       0.49649   0.94266   0.74999 
N          N       0.50351   0.05734   0.74999 
N          N       0.05734   0.49649   0.74999 
N          N       0.94266   0.50351   0.74999 
C          C       0.42809   0.93904   0.74975 
C          C       0.57191   0.06096   0.74975 
C          C       0.06096   0.42809   0.74975 
C          C       0.93904   0.57191   0.74975 
C          C       0.42091   0.97727   0.74897 
C          C       0.57909   0.02273   0.74897 
C          C       0.02273   0.42091   0.74897 
C          C       0.97727   0.57909   0.74897 
N          N       0.44494   0.00585   0.74996 
N          N       0.55506   0.99415   0.74996 
N          N       0.99415   0.44494   0.74996 
N          N       0.00585   0.55506   0.74996 
C          C       0.42706   0.03860   0.75066 
C          C       0.57294   0.96140   0.75066 
C          C       0.96140   0.42706   0.75066 
C          C       0.03860   0.57294   0.75066 
C          C       0.38466   0.99306   0.74557 
C          C       0.61534   0.00694   0.74557 
C          C       0.00694   0.38466   0.74557 
C          C       0.99306   0.61534   0.74557 
C          C       0.38837   0.03004   0.75435 
C          C       0.61163   0.96996   0.75435 
C          C       0.96996   0.38837   0.75435 
C          C       0.03004   0.61163   0.75435 
C          C       0.44187   0.07466   0.74947 
C          C       0.55813   0.92534   0.74947 
C          C       0.92534   0.44187   0.74947 
C          C       0.07466   0.55813   0.74947 
H          H       0.45464   0.86053   0.76780 
H          H       0.54536   0.13947   0.76780 
H          H       0.13947   0.45464   0.76780 
H          H       0.86053   0.54536   0.76780 
H          H       0.52175   0.85390   0.73211 
H          H       0.47825   0.14610   0.73211 
H          H       0.14610   0.52175   0.73211 
H          H       0.85390   0.47825   0.73211 
H          H       0.47317   0.00307   0.74986 
H          H       0.52683   0.99693   0.74986 
H          H       0.99693   0.47317   0.74986 
H          H       0.00307   0.52683   0.74986 
H          H       0.35771   0.98035   0.73170 
H          H       0.64229   0.01965   0.73170 
H          H       0.01965   0.35771   0.73170 
H          H       0.98035   0.64229   0.73170 
H          H       0.36434   0.04761   0.76805 
H          H       0.63566   0.95239   0.76805 
H          H       0.95239   0.36434   0.76805 
H          H       0.04761   0.63566   0.76805 
C          C       0.60820   0.08604   0.75239 
C          C       0.39180   0.91396   0.75239 
C          C       0.91396   0.60820   0.75239 
C          C       0.08604   0.39180   0.75239 
C          C       0.60532   0.12174   0.68780 
C          C       0.39468   0.87826   0.68780 
C          C       0.87826   0.60532   0.68780 
C          C       0.12174   0.39468   0.68780 
C          C       0.63351   0.14633   0.70361 
C          C       0.36649   0.85367   0.70361 
C          C       0.85367   0.63351   0.70361 
C          C       0.14633   0.36649   0.70361 
C          C       0.67183   0.10129   0.83091 
C          C       0.32817   0.89871   0.83091 
C          C       0.89871   0.67183   0.83091 
C          C       0.10129   0.32817   0.83091 
C          C       0.64242   0.07720   0.82451 
C          C       0.35758   0.92280   0.82451 
C          C       0.92280   0.64242   0.82451 
C          C       0.07720   0.35758   0.82451 
H          H       0.58171   0.13071   0.61673 
H          H       0.41829   0.86929   0.61673 
H          H       0.86929   0.58171   0.61673 
H          H       0.13071   0.41829   0.61673 
H          H       0.62818   0.17371   0.65777 
H          H       0.37182   0.82629   0.65777 
H          H       0.82629   0.62818   0.65777 
H          H       0.17371   0.37182   0.65777 
H          H       0.69795   0.09236   0.88375 
H          H       0.30205   0.90764   0.88375 
H          H       0.90764   0.69795   0.88375 
H          H       0.09236   0.30205   0.88375 
H          H       0.64596   0.05093   0.88693 
H          H       0.35404   0.94907   0.88693 
H          H       0.94907   0.64596   0.88693 
H          H       0.05093   0.35404   0.88693 
C          C       0.72370   0.22596   0.73806 
C          C       0.27630   0.77404   0.73806 
C          C       0.77404   0.72370   0.73806 
C          C       0.22596   0.27630   0.73806 
C          C       0.71952   0.26208   0.68210 
C          C       0.28048   0.73792   0.68210 
C          C       0.73792   0.71952   0.68210 
C          C       0.26208   0.28048   0.68210 
C          C       0.74834   0.28633   0.69329 
C          C       0.25166   0.71367   0.69329 
C          C       0.71367   0.74834   0.69329 
C          C       0.28633   0.25166   0.69329 
C          C       0.78594   0.23865   0.81664 
C          C       0.21406   0.76135   0.81664 
C          C       0.76135   0.78594   0.81664 
C          C       0.23865   0.21406   0.81664 
C          C       0.75713   0.21440   0.80546 
C          C       0.24287   0.78560   0.80546 
C          C       0.78560   0.75713   0.80546 
C          C       0.21440   0.24287   0.80546 
H          H       0.69351   0.27133   0.62935 
H          H       0.30649   0.72867   0.62935 
H          H       0.72867   0.69351   0.62935 
H          H       0.27133   0.30649   0.62935 
H          H       0.74436   0.31438   0.64872 
H          H       0.25564   0.68562   0.64872 
H          H       0.68562   0.74436   0.64872 
H          H       0.31438   0.25564   0.64872 
H          H       0.81195   0.22941   0.86941 
H          H       0.18805   0.77059   0.86941 
H          H       0.77059   0.81195   0.86941 
H          H       0.22941   0.18805   0.86941 
H          H       0.76110   0.18635   0.85005 
H          H       0.23890   0.81365   0.85005 
H          H       0.81365   0.76110   0.85005 
H          H       0.18635   0.23890   0.85005 
C          C       0.87211   0.35429   0.79492 
C          C       0.12789   0.64571   0.79492 
C          C       0.64571   0.87211   0.79492 
C          C       0.35429   0.12789   0.79492 
C          C       0.90036   0.37882   0.81071 
C          C       0.09964   0.62118   0.81071 
C          C       0.62118   0.90036   0.81071 
C          C       0.37882   0.09964   0.81071 
C          C       0.89742   0.41451   0.74635 
C          C       0.10258   0.58549   0.74635 
C          C       0.58549   0.89742   0.74635 
C          C       0.41451   0.10258   0.74635 
C          C       0.86319   0.42331   0.67408 
C          C       0.13681   0.57669   0.67408 
C          C       0.57669   0.86319   0.67408 
C          C       0.42331   0.13681   0.67408 
C          C       0.83373   0.39930   0.66764 
C          C       0.16627   0.60070   0.66764 
C          C       0.60070   0.83373   0.66764 
C          C       0.39930   0.16627   0.66764 
H          H       0.87743   0.32693   0.84074 
H          H       0.12257   0.67307   0.84074 
H          H       0.67307   0.87743   0.84074 
H          H       0.32693   0.12257   0.84074 
H          H       0.92397   0.36979   0.88157 
H          H       0.07603   0.63021   0.88157 
H          H       0.63021   0.92397   0.88157 
H          H       0.36979   0.07603   0.88157 
H          H       0.85970   0.44958   0.61147 
H          H       0.14030   0.55042   0.61147 
H          H       0.55042   0.85970   0.61147 
H          H       0.44958   0.14030   0.61147 
H          H       0.80759   0.40821   0.61478 
H          H       0.19241   0.59179   0.61478 
H          H       0.59179   0.80759   0.61478 
H          H       0.40821   0.19241   0.61478 
C          C       0.69339   0.20074   0.72590 
C          C       0.30661   0.79926   0.72590 
C          C       0.79926   0.69339   0.72590 
C          C       0.20074   0.30661   0.72590 
C          C       0.69607   0.16498   0.77894 
C          C       0.30393   0.83502   0.77894 
C          C       0.83502   0.69607   0.77894 
C          C       0.16498   0.30393   0.77894 
C          C       0.66762   0.13743   0.77229 
C          C       0.33238   0.86257   0.77229 
C          C       0.86257   0.66762   0.77229 
C          C       0.13743   0.33238   0.77229 
H          H       0.72200   0.15625   0.83083 
H          H       0.27800   0.84375   0.83083 
H          H       0.84375   0.72200   0.83083 
H          H       0.15625   0.27800   0.83083 
C          C       0.81210   0.29995   0.77286 
C          C       0.18790   0.70005   0.77286 
C          C       0.70005   0.81210   0.77286 
C          C       0.29995   0.18790   0.77286 
C          C       0.83796   0.36318   0.72642 
C          C       0.16204   0.63682   0.72642 
C          C       0.63682   0.83796   0.72642 
C          C       0.36318   0.16204   0.72642 
C          C       0.80947   0.33569   0.71981 
C          C       0.19053   0.66431   0.71981 
C          C       0.66431   0.80947   0.71981 
C          C       0.33569   0.19053   0.71981 
C          C       0.78177   0.27476   0.76069 
C          C       0.21823   0.72524   0.76069 
C          C       0.72524   0.78177   0.76069 
C          C       0.27476   0.21823   0.76069 
H          H       0.78354   0.34445   0.66794 
H          H       0.21646   0.65555   0.66794 
H          H       0.65555   0.78354   0.66794 
H          H       0.34445   0.21646   0.66794 
N          N       0.63414   0.22744   0.59818 
N          N       0.36586   0.77256   0.59818 
N          N       0.77256   0.63414   0.59818 
N          N       0.22744   0.36586   0.59818 
C          C       0.66106   0.21633   0.65489 
C          C       0.33894   0.78367   0.65489 
C          C       0.78367   0.66106   0.65489 
C          C       0.21633   0.33894   0.65489 
C          C       0.84443   0.28436   0.84391 
C          C       0.15557   0.71564   0.84391 
C          C       0.71564   0.84443   0.84391 
C          C       0.28436   0.15557   0.84391 
N          N       0.87135   0.27325   0.90063 
N          N       0.12865   0.72675   0.90063 
N          N       0.72675   0.87135   0.90063 
N          N       0.27325   0.12865   0.90063 
