data_crystal

_cell_length_a    24.77140
_cell_length_b    24.77140
_cell_length_c    6.92480
_cell_angle_alpha 90.00000
_cell_angle_beta  90.00000
_cell_angle_gamma 120.00000

_space_group_name_Hall 'P 1'
_space_group_name_H-M_alt  'P 1'

loop_
_symmetry_equiv_pos_as_xyz
'x,y,z' 

loop_
_atom_site_label
_atom_site_type_symbol
_atom_site_fract_x
_atom_site_fract_y
_atom_site_fract_z
C          C       0.33308   0.72299   0.25000 
C          C       0.27701   0.61009   0.25000 
C          C       0.38991   0.66692   0.25000 
C          C       0.66692   0.27701   0.25000 
C          C       0.72299   0.38991   0.25000 
C          C       0.61009   0.33308   0.25000 
C          C       0.72299   0.33308   0.25000 
C          C       0.61009   0.27701   0.25000 
C          C       0.66692   0.38991   0.25000 
C          C       0.27701   0.66692   0.25000 
C          C       0.38991   0.72299   0.25000 
C          C       0.33308   0.61009   0.25000 
C          C       0.44587   0.66665   0.25000 
C          C       0.33335   0.77922   0.25000 
C          C       0.22078   0.55413   0.25000 
C          C       0.55413   0.33335   0.25000 
C          C       0.66665   0.22078   0.25000 
C          C       0.77922   0.44587   0.25000 
C          C       0.66665   0.44587   0.25000 
C          C       0.77922   0.33335   0.25000 
C          C       0.55413   0.22078   0.25000 
C          C       0.33335   0.55413   0.25000 
C          C       0.22078   0.66665   0.25000 
C          C       0.44587   0.77922   0.25000 
C          C       0.44574   0.61103   0.25000 
C          C       0.38897   0.83471   0.25000 
C          C       0.16529   0.55426   0.25000 
C          C       0.55426   0.38897   0.25000 
C          C       0.61103   0.16529   0.25000 
C          C       0.83471   0.44574   0.25000 
C          C       0.61103   0.44574   0.25000 
C          C       0.83471   0.38897   0.25000 
C          C       0.55426   0.16529   0.25000 
C          C       0.38897   0.55426   0.25000 
C          C       0.16529   0.61103   0.25000 
C          C       0.44574   0.83471   0.25000 
O          O       0.38625   0.49706   0.25000 
O          O       0.50294   0.88919   0.25000 
O          O       0.11081   0.61375   0.25000 
O          O       0.61375   0.50294   0.25000 
O          O       0.49706   0.11081   0.25000 
O          O       0.88919   0.38625   0.25000 
O          O       0.49706   0.38625   0.25000 
O          O       0.88919   0.50294   0.25000 
O          O       0.61375   0.11081   0.25000 
O          O       0.50294   0.61375   0.25000 
O          O       0.11081   0.49706   0.25000 
O          O       0.38625   0.88919   0.25000 
C          C       0.44352   0.49935   0.25000 
C          C       0.50065   0.94417   0.25000 
C          C       0.05583   0.55648   0.25000 
C          C       0.55648   0.50065   0.25000 
C          C       0.49935   0.05583   0.25000 
C          C       0.94417   0.44352   0.25000 
C          C       0.49935   0.44352   0.25000 
C          C       0.94417   0.50065   0.25000 
C          C       0.55648   0.05583   0.25000 
C          C       0.50065   0.55648   0.25000 
C          C       0.05583   0.49935   0.25000 
C          C       0.44352   0.94417   0.25000 
H          H       0.49195   0.71262   0.25000 
H          H       0.28738   0.77933   0.25000 
H          H       0.22067   0.50805   0.25000 
H          H       0.50805   0.28738   0.25000 
H          H       0.71262   0.22067   0.25000 
H          H       0.77933   0.49195   0.25000 
H          H       0.71262   0.49195   0.25000 
H          H       0.77933   0.28738   0.25000 
H          H       0.50805   0.22067   0.25000 
H          H       0.28738   0.50805   0.25000 
H          H       0.22067   0.71262   0.25000 
H          H       0.49195   0.77933   0.25000 
C          C       0.55675   0.55675   0.25000 
C          C       0.44325   0.00000   0.25000 
C          C       0.00000   0.44325   0.25000 
C          C       0.44325   0.44325   0.25000 
C          C       0.55675   0.00000   0.25000 
C          C       0.00000   0.55675   0.25000 
C          C       0.61507   0.61507   0.25000 
C          C       0.38493   0.00000   0.25000 
C          C       0.00000   0.38493   0.25000 
C          C       0.38493   0.38493   0.25000 
C          C       0.61507   0.00000   0.25000 
C          C       0.00000   0.61507   0.25000 
N          N       0.33822   0.33822   0.25000 
N          N       0.66178   0.00000   0.25000 
N          N       0.00000   0.66178   0.25000 
N          N       0.66178   0.66178   0.25000 
N          N       0.33822   0.00000   0.25000 
N          N       0.00000   0.33822   0.25000 
C          C       0.33308   0.72299   0.75000 
C          C       0.27701   0.61009   0.75000 
C          C       0.38991   0.66692   0.75000 
C          C       0.66692   0.27701   0.75000 
C          C       0.72299   0.38991   0.75000 
C          C       0.61009   0.33308   0.75000 
C          C       0.72299   0.33308   0.75000 
C          C       0.61009   0.27701   0.75000 
C          C       0.66692   0.38991   0.75000 
C          C       0.27701   0.66692   0.75000 
C          C       0.38991   0.72299   0.75000 
C          C       0.33308   0.61009   0.75000 
C          C       0.44587   0.66665   0.75000 
C          C       0.33335   0.77922   0.75000 
C          C       0.22078   0.55413   0.75000 
C          C       0.55413   0.33335   0.75000 
C          C       0.66665   0.22078   0.75000 
C          C       0.77922   0.44587   0.75000 
C          C       0.66665   0.44587   0.75000 
C          C       0.77922   0.33335   0.75000 
C          C       0.55413   0.22078   0.75000 
C          C       0.33335   0.55413   0.75000 
C          C       0.22078   0.66665   0.75000 
C          C       0.44587   0.77922   0.75000 
C          C       0.44574   0.61103   0.75000 
C          C       0.38897   0.83471   0.75000 
C          C       0.16529   0.55426   0.75000 
C          C       0.55426   0.38897   0.75000 
C          C       0.61103   0.16529   0.75000 
C          C       0.83471   0.44574   0.75000 
C          C       0.61103   0.44574   0.75000 
C          C       0.83471   0.38897   0.75000 
C          C       0.55426   0.16529   0.75000 
C          C       0.38897   0.55426   0.75000 
C          C       0.16529   0.61103   0.75000 
C          C       0.44574   0.83471   0.75000 
O          O       0.38625   0.49706   0.75000 
O          O       0.50294   0.88919   0.75000 
O          O       0.11081   0.61375   0.75000 
O          O       0.61375   0.50294   0.75000 
O          O       0.49706   0.11081   0.75000 
O          O       0.88919   0.38625   0.75000 
O          O       0.49706   0.38625   0.75000 
O          O       0.88919   0.50294   0.75000 
O          O       0.61375   0.11081   0.75000 
O          O       0.50294   0.61375   0.75000 
O          O       0.11081   0.49706   0.75000 
O          O       0.38625   0.88919   0.75000 
C          C       0.44352   0.49935   0.75000 
C          C       0.50065   0.94417   0.75000 
C          C       0.05583   0.55648   0.75000 
C          C       0.55648   0.50065   0.75000 
C          C       0.49935   0.05583   0.75000 
C          C       0.94417   0.44352   0.75000 
C          C       0.49935   0.44352   0.75000 
C          C       0.94417   0.50065   0.75000 
C          C       0.55648   0.05583   0.75000 
C          C       0.50065   0.55648   0.75000 
C          C       0.05583   0.49935   0.75000 
C          C       0.44352   0.94417   0.75000 
H          H       0.49195   0.71262   0.75000 
H          H       0.28738   0.77933   0.75000 
H          H       0.22067   0.50805   0.75000 
H          H       0.50805   0.28738   0.75000 
H          H       0.71262   0.22067   0.75000 
H          H       0.77933   0.49195   0.75000 
H          H       0.71262   0.49195   0.75000 
H          H       0.77933   0.28738   0.75000 
H          H       0.50805   0.22067   0.75000 
H          H       0.28738   0.50805   0.75000 
H          H       0.22067   0.71262   0.75000 
H          H       0.49195   0.77933   0.75000 
C          C       0.55675   0.55675   0.75000 
C          C       0.44325   0.00000   0.75000 
C          C       0.00000   0.44325   0.75000 
C          C       0.44325   0.44325   0.75000 
C          C       0.55675   0.00000   0.75000 
C          C       0.00000   0.55675   0.75000 
C          C       0.61507   0.61507   0.75000 
C          C       0.38493   0.00000   0.75000 
C          C       0.00000   0.38493   0.75000 
C          C       0.38493   0.38493   0.75000 
C          C       0.61507   0.00000   0.75000 
C          C       0.00000   0.61507   0.75000 
N          N       0.33822   0.33822   0.75000 
N          N       0.66178   0.00000   0.75000 
N          N       0.00000   0.66178   0.75000 
N          N       0.66178   0.66178   0.75000 
N          N       0.33822   0.00000   0.75000 
N          N       0.00000   0.33822   0.75000 
