data_crystal
 
_cell_length_a    33.95240
_cell_length_b    33.95240
_cell_length_c    6.51080
_cell_angle_alpha 90.00000
_cell_angle_beta  90.00000
_cell_angle_gamma 120.00000
 
_symmetry_space_group_name_Hall 'P 1'
_symmetry_space_group_name_H-M  'P 1'
 
loop_
_symmetry_equiv_pos_as_xyz
 'x,y,z' 
 
loop_
_atom_site_label
_atom_site_type_symbol
_atom_site_fract_x
_atom_site_fract_y
_atom_site_fract_z
C          C       0.91540   0.99892   0.25000 
C          C       0.00108   0.91648   0.25000 
C          C       0.08352   0.08460   0.25000 
C          C       0.08460   0.00108   0.75000 
C          C       0.99892   0.08352   0.75000 
C          C       0.91648   0.91540   0.75000 
C          C       0.99892   0.91540   0.75000 
C          C       0.91648   0.00108   0.75000 
C          C       0.08460   0.08352   0.75000 
C          C       0.00108   0.08460   0.25000 
C          C       0.08352   0.99892   0.25000 
C          C       0.91540   0.91648   0.25000 
C          C       0.87414   0.95865   0.25000 
C          C       0.04135   0.91549   0.25000 
C          C       0.08451   0.12586   0.25000 
C          C       0.12586   0.04135   0.75000 
C          C       0.95865   0.08451   0.75000 
C          C       0.91549   0.87414   0.75000 
C          C       0.95865   0.87414   0.75000 
C          C       0.91549   0.04135   0.75000 
C          C       0.12586   0.08451   0.75000 
C          C       0.04135   0.12586   0.25000 
C          C       0.08451   0.95865   0.25000 
C          C       0.87414   0.91549   0.25000 
O          O       0.83382   0.87335   0.25000 
O          O       0.12665   0.96047   0.25000 
O          O       0.03953   0.16618   0.25000 
O          O       0.16618   0.12665   0.75000 
O          O       0.87335   0.03953   0.75000 
O          O       0.96047   0.83382   0.75000 
O          O       0.87335   0.83382   0.75000 
O          O       0.96047   0.12665   0.75000 
O          O       0.16618   0.03953   0.75000 
O          O       0.12665   0.16618   0.25000 
O          O       0.03953   0.87335   0.25000 
O          O       0.83382   0.96047   0.25000 
C          C       0.79341   0.87491   0.25000 
C          C       0.12509   0.91850   0.25000 
C          C       0.08150   0.20659   0.25000 
C          C       0.20659   0.12509   0.75000 
C          C       0.87491   0.08150   0.75000 
C          C       0.91850   0.79341   0.75000 
C          C       0.87491   0.79341   0.75000 
C          C       0.91850   0.12509   0.75000 
C          C       0.20659   0.08150   0.75000 
C          C       0.12509   0.20659   0.25000 
C          C       0.08150   0.87491   0.25000 
C          C       0.79341   0.91850   0.25000 
C          C       0.75196   0.91761   0.25000 
C          C       0.08239   0.83435   0.25000 
C          C       0.16565   0.24804   0.25000 
C          C       0.24804   0.08239   0.75000 
C          C       0.91761   0.16565   0.75000 
C          C       0.83435   0.75196   0.75000 
C          C       0.91761   0.75196   0.75000 
C          C       0.83435   0.08239   0.75000 
C          C       0.24804   0.16565   0.75000 
C          C       0.08239   0.24804   0.25000 
C          C       0.16565   0.91761   0.25000 
C          C       0.75196   0.83435   0.25000 
C          C       0.71057   0.83447   0.25000 
C          C       0.16553   0.87610   0.25000 
C          C       0.12390   0.28943   0.25000 
C          C       0.28943   0.16553   0.75000 
C          C       0.83447   0.12390   0.75000 
C          C       0.87610   0.71057   0.75000 
C          C       0.83447   0.71057   0.75000 
C          C       0.87610   0.16553   0.75000 
C          C       0.28943   0.12390   0.75000 
C          C       0.16553   0.28943   0.25000 
C          C       0.12390   0.83447   0.25000 
C          C       0.71057   0.87610   0.25000 
C          C       0.95788   0.00001   0.25000 
C          C       0.99999   0.95787   0.25000 
C          C       0.04213   0.04212   0.25000 
C          C       0.04212   0.99999   0.75000 
C          C       0.00001   0.04213   0.75000 
C          C       0.95787   0.95788   0.75000 
C          C       0.00001   0.95788   0.75000 
C          C       0.95787   0.99999   0.75000 
C          C       0.04212   0.04213   0.75000 
C          C       0.99999   0.04212   0.25000 
C          C       0.04213   0.00001   0.25000 
C          C       0.95788   0.95787   0.25000 
C          C       0.29117   0.62451   0.25000 
C          C       0.37549   0.66666   0.25000 
C          C       0.33334   0.70883   0.25000 
C          C       0.70883   0.37549   0.75000 
C          C       0.62451   0.33334   0.75000 
C          C       0.66666   0.29117   0.75000 
C          C       0.62451   0.29117   0.75000 
C          C       0.66666   0.37549   0.75000 
C          C       0.70883   0.33334   0.75000 
C          C       0.37549   0.70883   0.25000 
C          C       0.33334   0.62451   0.25000 
C          C       0.29117   0.66666   0.25000 
C          C       0.41803   0.66778   0.25000 
C          C       0.33222   0.75025   0.25000 
C          C       0.24975   0.58197   0.25000 
C          C       0.58197   0.33222   0.75000 
C          C       0.66778   0.24975   0.75000 
C          C       0.75025   0.41803   0.75000 
C          C       0.66778   0.41803   0.75000 
C          C       0.75025   0.33222   0.75000 
C          C       0.58197   0.24975   0.75000 
C          C       0.33222   0.58197   0.25000 
C          C       0.24975   0.66778   0.25000 
C          C       0.41803   0.75025   0.25000 
C          C       0.45934   0.70809   0.25000 
C          C       0.29191   0.75125   0.25000 
C          C       0.24875   0.54066   0.25000 
C          C       0.54066   0.29191   0.75000 
C          C       0.70809   0.24875   0.75000 
C          C       0.75125   0.45934   0.75000 
C          C       0.70809   0.45934   0.75000 
C          C       0.75125   0.29191   0.75000 
C          C       0.54066   0.24875   0.75000 
C          C       0.29191   0.54066   0.25000 
C          C       0.24875   0.70809   0.25000 
C          C       0.45934   0.75125   0.25000 
O          O       0.49971   0.79341   0.25000 
O          O       0.20659   0.70630   0.25000 
O          O       0.29370   0.50029   0.25000 
O          O       0.50029   0.20659   0.75000 
O          O       0.79341   0.29370   0.75000 
O          O       0.70630   0.49971   0.75000 
O          O       0.79341   0.49971   0.75000 
O          O       0.70630   0.20659   0.75000 
O          O       0.50029   0.29370   0.75000 
O          O       0.20659   0.50029   0.25000 
O          O       0.29370   0.79341   0.25000 
O          O       0.49971   0.70630   0.25000 
C          C       0.54015   0.79186   0.25000 
C          C       0.20814   0.74829   0.25000 
C          C       0.25171   0.45985   0.25000 
C          C       0.45985   0.20814   0.75000 
C          C       0.79186   0.25171   0.75000 
C          C       0.74829   0.54015   0.75000 
C          C       0.79186   0.54015   0.75000 
C          C       0.74829   0.20814   0.75000 
C          C       0.45985   0.25171   0.75000 
C          C       0.20814   0.45985   0.25000 
C          C       0.25171   0.79186   0.25000 
C          C       0.54015   0.74829   0.25000 
C          C       0.58162   0.74919   0.25000 
C          C       0.25081   0.83243   0.25000 
C          C       0.16757   0.41838   0.25000 
C          C       0.41838   0.25081   0.75000 
C          C       0.74919   0.16757   0.75000 
C          C       0.83243   0.58162   0.75000 
C          C       0.74919   0.58162   0.75000 
C          C       0.83243   0.25081   0.75000 
C          C       0.41838   0.16757   0.75000 
C          C       0.25081   0.41838   0.25000 
C          C       0.16757   0.74919   0.25000 
C          C       0.58162   0.83243   0.25000 
C          C       0.62302   0.83232   0.25000 
C          C       0.16768   0.79070   0.25000 
C          C       0.20930   0.37698   0.25000 
C          C       0.37698   0.16768   0.75000 
C          C       0.83232   0.20930   0.75000 
C          C       0.79070   0.62302   0.75000 
C          C       0.83232   0.62302   0.75000 
C          C       0.79070   0.16768   0.75000 
C          C       0.37698   0.20930   0.75000 
C          C       0.16768   0.37698   0.25000 
C          C       0.20930   0.83232   0.25000 
C          C       0.62302   0.79070   0.25000 
H          H       0.58139   0.71717   0.25000 
H          H       0.28283   0.86422   0.25000 
H          H       0.13578   0.41861   0.25000 
H          H       0.41861   0.28283   0.75000 
H          H       0.71717   0.13578   0.75000 
H          H       0.86422   0.58139   0.75000 
H          H       0.71717   0.58139   0.75000 
H          H       0.86422   0.28283   0.75000 
H          H       0.41861   0.13578   0.75000 
H          H       0.28283   0.41861   0.25000 
H          H       0.13578   0.71717   0.25000 
H          H       0.58139   0.86422   0.25000 
H          H       0.42125   0.78332   0.25000 
H          H       0.21668   0.63793   0.25000 
H          H       0.36207   0.57875   0.25000 
H          H       0.57875   0.21668   0.75000 
H          H       0.78332   0.36207   0.75000 
H          H       0.63793   0.42125   0.75000 
H          H       0.78332   0.42125   0.75000 
H          H       0.63793   0.21668   0.75000 
H          H       0.57875   0.36207   0.75000 
H          H       0.21668   0.57875   0.25000 
H          H       0.36207   0.78332   0.25000 
H          H       0.42125   0.63793   0.25000 
H          H       0.91215   0.88339   0.25000 
H          H       0.11661   0.02876   0.25000 
H          H       0.97124   0.08785   0.25000 
H          H       0.08785   0.11661   0.75000 
H          H       0.88339   0.97124   0.75000 
H          H       0.02876   0.91215   0.75000 
H          H       0.88339   0.91215   0.75000 
H          H       0.02876   0.11661   0.75000 
H          H       0.08785   0.97124   0.75000 
H          H       0.11661   0.08785   0.25000 
H          H       0.97124   0.88339   0.25000 
H          H       0.91215   0.02876   0.25000 
H          H       0.75221   0.80258   0.25000 
H          H       0.19742   0.94963   0.25000 
H          H       0.05037   0.24779   0.25000 
H          H       0.24779   0.19742   0.75000 
H          H       0.80258   0.05037   0.75000 
H          H       0.94963   0.75221   0.75000 
H          H       0.80258   0.75221   0.75000 
H          H       0.94963   0.19742   0.75000 
H          H       0.24779   0.05037   0.75000 
H          H       0.19742   0.24779   0.25000 
H          H       0.05037   0.80258   0.25000 
H          H       0.75221   0.94963   0.25000 
C          C       0.66680   0.87592   0.25000 
C          C       0.12408   0.79088   0.25000 
C          C       0.20912   0.33320   0.25000 
C          C       0.33320   0.12408   0.75000 
C          C       0.87592   0.20912   0.75000 
C          C       0.79088   0.66680   0.75000 
C          C       0.87592   0.66680   0.75000 
C          C       0.79088   0.12408   0.75000 
C          C       0.33320   0.20912   0.75000 
C          C       0.12408   0.33320   0.25000 
C          C       0.20912   0.87592   0.25000 
C          C       0.66680   0.79088   0.25000 
O          O       0.66680   0.91188   0.25000 
O          O       0.08812   0.75492   0.25000 
O          O       0.24508   0.33320   0.25000 
O          O       0.33320   0.08812   0.75000 
O          O       0.91188   0.24508   0.75000 
O          O       0.75492   0.66680   0.75000 
O          O       0.91188   0.66680   0.75000 
O          O       0.75492   0.08812   0.75000 
O          O       0.33320   0.24508   0.75000 
O          O       0.08812   0.33320   0.25000 
O          O       0.24508   0.91188   0.25000 
O          O       0.66680   0.75492   0.25000 
