data_crystal

_cell_length_a    33.93630
_cell_length_b    33.93630
_cell_length_c    7.14080
_cell_angle_alpha 90.00000
_cell_angle_beta  90.00000
_cell_angle_gamma 120.00000

_space_group_name_Hall 'P 1'
_space_group_name_H-M_alt  'P 1'

loop_
_symmetry_equiv_pos_as_xyz
'x,y,z' 

loop_
_atom_site_label
_atom_site_type_symbol
_atom_site_fract_x
_atom_site_fract_y
_atom_site_fract_z
C          C       0.33325   0.70854   0.25000 
C          C       0.29146   0.62471   0.25000 
C          C       0.37529   0.66675   0.25000 
C          C       0.66675   0.29146   0.25000 
C          C       0.70854   0.37529   0.25000 
C          C       0.62471   0.33325   0.25000 
C          C       0.70854   0.33325   0.25000 
C          C       0.62471   0.29146   0.25000 
C          C       0.66675   0.37529   0.25000 
C          C       0.29146   0.66675   0.25000 
C          C       0.37529   0.70854   0.25000 
C          C       0.33325   0.62471   0.25000 
C          C       0.41685   0.66657   0.25000 
C          C       0.33343   0.75028   0.25000 
C          C       0.24972   0.58315   0.25000 
C          C       0.58315   0.33343   0.25000 
C          C       0.66657   0.24972   0.25000 
C          C       0.75028   0.41685   0.25000 
C          C       0.66657   0.41685   0.25000 
C          C       0.75028   0.33343   0.25000 
C          C       0.58315   0.24972   0.25000 
C          C       0.33343   0.58315   0.25000 
C          C       0.24972   0.66657   0.25000 
C          C       0.41685   0.75028   0.25000 
C          C       0.41795   0.62594   0.25000 
C          C       0.37406   0.79201   0.25000 
C          C       0.20799   0.58205   0.25000 
C          C       0.58205   0.37406   0.25000 
C          C       0.62594   0.20799   0.25000 
C          C       0.79201   0.41795   0.25000 
C          C       0.62594   0.41795   0.25000 
C          C       0.79201   0.37406   0.25000 
C          C       0.58205   0.20799   0.25000 
C          C       0.37406   0.58205   0.25000 
C          C       0.20799   0.62594   0.25000 
C          C       0.41795   0.79201   0.25000 
O          O       0.37219   0.53969   0.25000 
O          O       0.46031   0.83250   0.25000 
O          O       0.16750   0.62781   0.25000 
O          O       0.62781   0.46031   0.25000 
O          O       0.53969   0.16750   0.25000 
O          O       0.83250   0.37219   0.25000 
O          O       0.53969   0.37219   0.25000 
O          O       0.83250   0.46031   0.25000 
O          O       0.62781   0.16750   0.25000 
O          O       0.46031   0.62781   0.25000 
O          O       0.16750   0.53969   0.25000 
O          O       0.37219   0.83250   0.25000 
C          C       0.41453   0.54150   0.25000 
C          C       0.45850   0.87303   0.25000 
C          C       0.12697   0.58547   0.25000 
C          C       0.58547   0.45850   0.25000 
C          C       0.54150   0.12697   0.25000 
C          C       0.87303   0.41453   0.25000 
C          C       0.54150   0.41453   0.25000 
C          C       0.87303   0.45850   0.25000 
C          C       0.58547   0.12697   0.25000 
C          C       0.45850   0.58547   0.25000 
C          C       0.12697   0.54150   0.25000 
C          C       0.41453   0.87303   0.25000 
C          C       0.49921   0.58443   0.25000 
C          C       0.41557   0.91478   0.25000 
C          C       0.08522   0.50079   0.25000 
C          C       0.50079   0.41557   0.25000 
C          C       0.58443   0.08522   0.25000 
C          C       0.91478   0.49921   0.25000 
C          C       0.58443   0.49921   0.25000 
C          C       0.91478   0.41557   0.25000 
C          C       0.50079   0.08522   0.25000 
C          C       0.41557   0.50079   0.25000 
C          C       0.08522   0.58443   0.25000 
C          C       0.49921   0.91478   0.25000 
C          C       0.45719   0.50099   0.25000 
C          C       0.49901   0.95620   0.25000 
C          C       0.04380   0.54281   0.25000 
C          C       0.54281   0.49901   0.25000 
C          C       0.50099   0.04380   0.25000 
C          C       0.95620   0.45719   0.25000 
C          C       0.50099   0.45719   0.25000 
C          C       0.95620   0.49901   0.25000 
C          C       0.54281   0.04380   0.25000 
C          C       0.49901   0.54281   0.25000 
C          C       0.04380   0.50099   0.25000 
C          C       0.45719   0.95620   0.25000 
H          H       0.45018   0.70079   0.25000 
H          H       0.29921   0.74939   0.25000 
H          H       0.25061   0.54982   0.25000 
H          H       0.54982   0.29921   0.25000 
H          H       0.70079   0.25061   0.25000 
H          H       0.74939   0.45018   0.25000 
H          H       0.70079   0.45018   0.25000 
H          H       0.74939   0.29921   0.25000 
H          H       0.54982   0.25061   0.25000 
H          H       0.29921   0.54982   0.25000 
H          H       0.25061   0.70079   0.25000 
H          H       0.45018   0.74939   0.25000 
H          H       0.53341   0.61778   0.25000 
H          H       0.38222   0.91563   0.25000 
H          H       0.08437   0.46659   0.25000 
H          H       0.46659   0.38222   0.25000 
H          H       0.61778   0.08437   0.25000 
H          H       0.91563   0.53341   0.25000 
H          H       0.61778   0.53341   0.25000 
H          H       0.91563   0.38222   0.25000 
H          H       0.46659   0.08437   0.25000 
H          H       0.38222   0.46659   0.25000 
H          H       0.08437   0.61778   0.25000 
H          H       0.53341   0.91563   0.25000 
C          C       0.54281   0.54281   0.25000 
C          C       0.45719   0.00000   0.25000 
C          C       0.00000   0.45719   0.25000 
C          C       0.45719   0.45719   0.25000 
C          C       0.54281   0.00000   0.25000 
C          C       0.00000   0.54281   0.25000 
O          O       0.57898   0.57898   0.25000 
O          O       0.42102   0.00000   0.25000 
O          O       0.00000   0.42102   0.25000 
O          O       0.42102   0.42102   0.25000 
O          O       0.57898   0.00000   0.25000 
O          O       0.00000   0.57898   0.25000 
C          C       0.33325   0.70854   0.75000 
C          C       0.29146   0.62471   0.75000 
C          C       0.37529   0.66675   0.75000 
C          C       0.66675   0.29146   0.75000 
C          C       0.70854   0.37529   0.75000 
C          C       0.62471   0.33325   0.75000 
C          C       0.70854   0.33325   0.75000 
C          C       0.62471   0.29146   0.75000 
C          C       0.66675   0.37529   0.75000 
C          C       0.29146   0.66675   0.75000 
C          C       0.37529   0.70854   0.75000 
C          C       0.33325   0.62471   0.75000 
C          C       0.41685   0.66657   0.75000 
C          C       0.33343   0.75028   0.75000 
C          C       0.24972   0.58315   0.75000 
C          C       0.58315   0.33343   0.75000 
C          C       0.66657   0.24972   0.75000 
C          C       0.75028   0.41685   0.75000 
C          C       0.66657   0.41685   0.75000 
C          C       0.75028   0.33343   0.75000 
C          C       0.58315   0.24972   0.75000 
C          C       0.33343   0.58315   0.75000 
C          C       0.24972   0.66657   0.75000 
C          C       0.41685   0.75028   0.75000 
C          C       0.41795   0.62594   0.75000 
C          C       0.37406   0.79201   0.75000 
C          C       0.20799   0.58205   0.75000 
C          C       0.58205   0.37406   0.75000 
C          C       0.62594   0.20799   0.75000 
C          C       0.79201   0.41795   0.75000 
C          C       0.62594   0.41795   0.75000 
C          C       0.79201   0.37406   0.75000 
C          C       0.58205   0.20799   0.75000 
C          C       0.37406   0.58205   0.75000 
C          C       0.20799   0.62594   0.75000 
C          C       0.41795   0.79201   0.75000 
O          O       0.37219   0.53969   0.75000 
O          O       0.46031   0.83250   0.75000 
O          O       0.16750   0.62781   0.75000 
O          O       0.62781   0.46031   0.75000 
O          O       0.53969   0.16750   0.75000 
O          O       0.83250   0.37219   0.75000 
O          O       0.53969   0.37219   0.75000 
O          O       0.83250   0.46031   0.75000 
O          O       0.62781   0.16750   0.75000 
O          O       0.46031   0.62781   0.75000 
O          O       0.16750   0.53969   0.75000 
O          O       0.37219   0.83250   0.75000 
C          C       0.41453   0.54150   0.75000 
C          C       0.45850   0.87303   0.75000 
C          C       0.12697   0.58547   0.75000 
C          C       0.58547   0.45850   0.75000 
C          C       0.54150   0.12697   0.75000 
C          C       0.87303   0.41453   0.75000 
C          C       0.54150   0.41453   0.75000 
C          C       0.87303   0.45850   0.75000 
C          C       0.58547   0.12697   0.75000 
C          C       0.45850   0.58547   0.75000 
C          C       0.12697   0.54150   0.75000 
C          C       0.41453   0.87303   0.75000 
C          C       0.49921   0.58443   0.75000 
C          C       0.41557   0.91478   0.75000 
C          C       0.08522   0.50079   0.75000 
C          C       0.50079   0.41557   0.75000 
C          C       0.58443   0.08522   0.75000 
C          C       0.91478   0.49921   0.75000 
C          C       0.58443   0.49921   0.75000 
C          C       0.91478   0.41557   0.75000 
C          C       0.50079   0.08522   0.75000 
C          C       0.41557   0.50079   0.75000 
C          C       0.08522   0.58443   0.75000 
C          C       0.49921   0.91478   0.75000 
C          C       0.45719   0.50099   0.75000 
C          C       0.49901   0.95620   0.75000 
C          C       0.04380   0.54281   0.75000 
C          C       0.54281   0.49901   0.75000 
C          C       0.50099   0.04380   0.75000 
C          C       0.95620   0.45719   0.75000 
C          C       0.50099   0.45719   0.75000 
C          C       0.95620   0.49901   0.75000 
C          C       0.54281   0.04380   0.75000 
C          C       0.49901   0.54281   0.75000 
C          C       0.04380   0.50099   0.75000 
C          C       0.45719   0.95620   0.75000 
H          H       0.45018   0.70079   0.75000 
H          H       0.29921   0.74939   0.75000 
H          H       0.25061   0.54982   0.75000 
H          H       0.54982   0.29921   0.75000 
H          H       0.70079   0.25061   0.75000 
H          H       0.74939   0.45018   0.75000 
H          H       0.70079   0.45018   0.75000 
H          H       0.74939   0.29921   0.75000 
H          H       0.54982   0.25061   0.75000 
H          H       0.29921   0.54982   0.75000 
H          H       0.25061   0.70079   0.75000 
H          H       0.45018   0.74939   0.75000 
H          H       0.53341   0.61778   0.75000 
H          H       0.38222   0.91563   0.75000 
H          H       0.08437   0.46659   0.75000 
H          H       0.46659   0.38222   0.75000 
H          H       0.61778   0.08437   0.75000 
H          H       0.91563   0.53341   0.75000 
H          H       0.61778   0.53341   0.75000 
H          H       0.91563   0.38222   0.75000 
H          H       0.46659   0.08437   0.75000 
H          H       0.38222   0.46659   0.75000 
H          H       0.08437   0.61778   0.75000 
H          H       0.53341   0.91563   0.75000 
C          C       0.54281   0.54281   0.75000 
C          C       0.45719   0.00000   0.75000 
C          C       0.00000   0.45719   0.75000 
C          C       0.45719   0.45719   0.75000 
C          C       0.54281   0.00000   0.75000 
C          C       0.00000   0.54281   0.75000 
O          O       0.57898   0.57898   0.75000 
O          O       0.42102   0.00000   0.75000 
O          O       0.00000   0.42102   0.75000 
O          O       0.42102   0.42102   0.75000 
O          O       0.57898   0.00000   0.75000 
O          O       0.00000   0.57898   0.75000 
