data_crystal

_cell_length_a    24.67250
_cell_length_b    24.67250
_cell_length_c    6.62220
_cell_angle_alpha 90.00000
_cell_angle_beta  90.00000
_cell_angle_gamma 120.00000

_space_group_name_Hall 'P 1'
_space_group_name_H-M_alt  'P 1'

loop_
_symmetry_equiv_pos_as_xyz
'x,y,z' 

loop_
_atom_site_label
_atom_site_type_symbol
_atom_site_fract_x
_atom_site_fract_y
_atom_site_fract_z
C          C       0.00000   0.05601   0.25000 
C          C       0.94399   0.94399   0.25000 
C          C       0.05601   0.00000   0.25000 
C          C       0.00000   0.94399   0.75000 
C          C       0.05601   0.05601   0.75000 
C          C       0.94399   0.00000   0.75000 
C          C       0.05601   0.00000   0.75000 
C          C       0.94399   0.94399   0.75000 
C          C       0.00000   0.05601   0.75000 
C          C       0.94399   0.00000   0.25000 
C          C       0.05601   0.05601   0.25000 
C          C       0.00000   0.94399   0.25000 
C          C       0.11142   0.99921   0.25000 
C          C       0.00079   0.11221   0.25000 
C          C       0.88779   0.88858   0.25000 
C          C       0.88858   0.00079   0.75000 
C          C       0.99921   0.88779   0.75000 
C          C       0.11221   0.11142   0.75000 
C          C       0.99921   0.11142   0.75000 
C          C       0.11221   0.00079   0.75000 
C          C       0.88858   0.88779   0.75000 
C          C       0.00079   0.88858   0.25000 
C          C       0.88779   0.99921   0.25000 
C          C       0.11142   0.11221   0.25000 
C          C       0.11179   0.94403   0.25000 
C          C       0.05597   0.16776   0.25000 
C          C       0.83224   0.88821   0.25000 
C          C       0.88821   0.05597   0.75000 
C          C       0.94403   0.83224   0.75000 
C          C       0.16776   0.11179   0.75000 
C          C       0.94403   0.11179   0.75000 
C          C       0.16776   0.05597   0.75000 
C          C       0.88821   0.83224   0.75000 
C          C       0.05597   0.88821   0.25000 
C          C       0.83224   0.94403   0.25000 
C          C       0.11179   0.16776   0.25000 
O          O       0.05396   0.83166   0.25000 
O          O       0.16834   0.22230   0.25000 
O          O       0.77770   0.94604   0.25000 
O          O       0.94604   0.16834   0.75000 
O          O       0.83166   0.77770   0.75000 
O          O       0.22230   0.05396   0.75000 
O          O       0.83166   0.05396   0.75000 
O          O       0.22230   0.16834   0.75000 
O          O       0.94604   0.77770   0.75000 
O          O       0.16834   0.94604   0.25000 
O          O       0.77770   0.83166   0.25000 
O          O       0.05396   0.22230   0.25000 
C          C       0.11059   0.83332   0.25000 
C          C       0.16668   0.27727   0.25000 
C          C       0.72273   0.88941   0.25000 
C          C       0.88941   0.16668   0.75000 
C          C       0.83332   0.72273   0.75000 
C          C       0.27727   0.11059   0.75000 
C          C       0.83332   0.11059   0.75000 
C          C       0.27727   0.16668   0.75000 
C          C       0.88941   0.72273   0.75000 
C          C       0.16668   0.88941   0.25000 
C          C       0.72273   0.83332   0.25000 
C          C       0.11059   0.27727   0.25000 
C          C       0.22229   0.88915   0.25000 
C          C       0.11085   0.33314   0.25000 
C          C       0.66686   0.77771   0.25000 
C          C       0.77771   0.11085   0.75000 
C          C       0.88915   0.66686   0.75000 
C          C       0.33314   0.22229   0.75000 
C          C       0.88915   0.22229   0.75000 
C          C       0.33314   0.11085   0.75000 
C          C       0.77771   0.66686   0.75000 
C          C       0.11085   0.77771   0.25000 
C          C       0.66686   0.88915   0.25000 
C          C       0.22229   0.33314   0.25000 
C          C       0.22257   0.83353   0.25000 
C          C       0.16647   0.38904   0.25000 
C          C       0.61096   0.77743   0.25000 
C          C       0.77743   0.16647   0.75000 
C          C       0.83353   0.61096   0.75000 
C          C       0.38904   0.22257   0.75000 
C          C       0.83353   0.22257   0.75000 
C          C       0.38904   0.16647   0.75000 
C          C       0.77743   0.61096   0.75000 
C          C       0.16647   0.77743   0.25000 
C          C       0.61096   0.83353   0.25000 
C          C       0.22257   0.38904   0.25000 
C          C       0.27960   0.94656   0.25000 
C          C       0.05344   0.33304   0.25000 
C          C       0.66696   0.72040   0.25000 
C          C       0.72040   0.05344   0.75000 
C          C       0.94656   0.66696   0.75000 
C          C       0.33304   0.27960   0.75000 
C          C       0.94656   0.27960   0.75000 
C          C       0.33304   0.05344   0.75000 
C          C       0.72040   0.66696   0.75000 
C          C       0.05344   0.72040   0.25000 
C          C       0.66696   0.94656   0.25000 
C          C       0.27960   0.33304   0.25000 
N          N       0.00740   0.67450   0.25000 
N          N       0.32550   0.33290   0.25000 
N          N       0.66710   0.99260   0.25000 
N          N       0.99260   0.32550   0.75000 
N          N       0.67450   0.66710   0.75000 
N          N       0.33290   0.00740   0.75000 
N          N       0.67450   0.00740   0.75000 
N          N       0.33290   0.32550   0.75000 
N          N       0.99260   0.66710   0.75000 
N          N       0.32550   0.99260   0.25000 
N          N       0.66710   0.67450   0.25000 
N          N       0.00740   0.33290   0.25000 
C          C       0.33342   0.61058   0.25000 
C          C       0.38942   0.72284   0.25000 
C          C       0.27716   0.66658   0.25000 
C          C       0.66658   0.38942   0.75000 
C          C       0.61058   0.27716   0.75000 
C          C       0.72284   0.33342   0.75000 
C          C       0.61058   0.33342   0.75000 
C          C       0.72284   0.38942   0.75000 
C          C       0.66658   0.27716   0.75000 
C          C       0.38942   0.66658   0.25000 
C          C       0.27716   0.61058   0.25000 
C          C       0.33342   0.72284   0.25000 
C          C       0.22183   0.66753   0.25000 
C          C       0.33247   0.55430   0.25000 
C          C       0.44570   0.77817   0.25000 
C          C       0.77817   0.33247   0.75000 
C          C       0.66753   0.44570   0.75000 
C          C       0.55430   0.22183   0.75000 
C          C       0.66753   0.22183   0.75000 
C          C       0.55430   0.33247   0.75000 
C          C       0.77817   0.44570   0.75000 
C          C       0.33247   0.77817   0.25000 
C          C       0.44570   0.66753   0.25000 
C          C       0.22183   0.55430   0.25000 
C          C       0.22142   0.72276   0.25000 
C          C       0.27724   0.49866   0.25000 
C          C       0.50134   0.77858   0.25000 
C          C       0.77858   0.27724   0.75000 
C          C       0.72276   0.50134   0.75000 
C          C       0.49866   0.22142   0.75000 
C          C       0.72276   0.22142   0.75000 
C          C       0.49866   0.27724   0.75000 
C          C       0.77858   0.50134   0.75000 
C          C       0.27724   0.77858   0.25000 
C          C       0.50134   0.72276   0.25000 
C          C       0.22142   0.49866   0.25000 
O          O       0.27921   0.83515   0.25000 
O          O       0.16485   0.44406   0.25000 
O          O       0.55594   0.72079   0.25000 
O          O       0.72079   0.16485   0.75000 
O          O       0.83515   0.55594   0.75000 
O          O       0.44406   0.27921   0.75000 
O          O       0.83515   0.27921   0.75000 
O          O       0.44406   0.16485   0.75000 
O          O       0.72079   0.55594   0.75000 
O          O       0.16485   0.72079   0.25000 
O          O       0.55594   0.83515   0.25000 
O          O       0.27921   0.44406   0.25000 
