data_crystal

_cell_length_a    24.68650
_cell_length_b    24.68650
_cell_length_c    7.00040
_cell_angle_alpha 90.00000
_cell_angle_beta  90.00000
_cell_angle_gamma 120.00000

_space_group_name_Hall 'P 1'
_space_group_name_H-M_alt  'P 1'

loop_
_symmetry_equiv_pos_as_xyz
'x,y,z' 

loop_
_atom_site_label
_atom_site_type_symbol
_atom_site_fract_x
_atom_site_fract_y
_atom_site_fract_z
C          C       0.33302   0.72290   0.25000 
C          C       0.27710   0.61012   0.25000 
C          C       0.38988   0.66698   0.25000 
C          C       0.66698   0.27710   0.25000 
C          C       0.72290   0.38988   0.25000 
C          C       0.61012   0.33302   0.25000 
C          C       0.44580   0.66674   0.25000 
C          C       0.33326   0.77906   0.25000 
C          C       0.22094   0.55420   0.25000 
C          C       0.55420   0.33326   0.25000 
C          C       0.66674   0.22094   0.25000 
C          C       0.77906   0.44580   0.25000 
C          C       0.44534   0.61102   0.25000 
C          C       0.38898   0.83432   0.25000 
C          C       0.16568   0.55466   0.25000 
C          C       0.55466   0.38898   0.25000 
C          C       0.61102   0.16568   0.25000 
C          C       0.83432   0.44534   0.25000 
O          O       0.38707   0.49825   0.25000 
O          O       0.50175   0.88882   0.25000 
O          O       0.11118   0.61293   0.25000 
O          O       0.61293   0.50175   0.25000 
O          O       0.49825   0.11118   0.25000 
O          O       0.88882   0.38707   0.25000 
C          C       0.44325   0.49883   0.25000 
C          C       0.50117   0.94442   0.25000 
C          C       0.05558   0.55675   0.25000 
C          C       0.55675   0.50117   0.25000 
C          C       0.49883   0.05558   0.25000 
C          C       0.94442   0.44325   0.25000 
O          O       0.61526   0.66936   0.25000 
O          O       0.33064   0.94590   0.25000 
O          O       0.05410   0.38474   0.25000 
O          O       0.38474   0.33064   0.25000 
O          O       0.66936   0.05410   0.25000 
O          O       0.94590   0.61526   0.25000 
C          C       0.72293   0.33309   0.25000 
C          C       0.66691   0.38984   0.25000 
C          C       0.61016   0.27707   0.25000 
C          C       0.27707   0.66691   0.25000 
C          C       0.33309   0.61016   0.25000 
C          C       0.38984   0.72293   0.25000 
C          C       0.66662   0.44573   0.25000 
C          C       0.55427   0.22089   0.25000 
C          C       0.77911   0.33338   0.25000 
C          C       0.33338   0.55427   0.25000 
C          C       0.44573   0.77911   0.25000 
C          C       0.22089   0.66662   0.25000 
C          C       0.61088   0.44522   0.25000 
C          C       0.55478   0.16566   0.25000 
C          C       0.83434   0.38912   0.25000 
C          C       0.38912   0.55478   0.25000 
C          C       0.44522   0.83434   0.25000 
C          C       0.16566   0.61088   0.25000 
O          O       0.49815   0.38694   0.25000 
O          O       0.61306   0.11121   0.25000 
O          O       0.88879   0.50185   0.25000 
O          O       0.50185   0.61306   0.25000 
O          O       0.38694   0.88879   0.25000 
O          O       0.11121   0.49815   0.25000 
C          C       0.49922   0.44368   0.25000 
C          C       0.55632   0.05554   0.25000 
C          C       0.94446   0.50078   0.25000 
C          C       0.50078   0.55632   0.25000 
C          C       0.44368   0.94446   0.25000 
C          C       0.05554   0.49922   0.25000 
O          O       0.67987   0.63248   0.25000 
O          O       0.36752   0.04739   0.25000 
O          O       0.95261   0.32013   0.25000 
O          O       0.32013   0.36752   0.25000 
O          O       0.63248   0.95261   0.25000 
O          O       0.04739   0.67987   0.25000 
C          C       0.55856   0.55859   0.25000 
C          C       0.44141   0.99997   0.25000 
C          C       0.00003   0.44144   0.25000 
C          C       0.44144   0.44141   0.25000 
C          C       0.55859   0.00003   0.25000 
C          C       0.99997   0.55856   0.25000 
C          C       0.61881   0.62208   0.25000 
C          C       0.37792   0.99673   0.25000 
C          C       0.00327   0.38119   0.25000 
C          C       0.38119   0.37792   0.25000 
C          C       0.62208   0.00327   0.25000 
C          C       0.99673   0.61881   0.25000 
H          H       0.68822   0.59697   0.25000 
H          H       0.40303   0.09125   0.25000 
H          H       0.90875   0.31178   0.25000 
H          H       0.31178   0.40303   0.25000 
H          H       0.59697   0.90875   0.25000 
H          H       0.09125   0.68822   0.25000 
H          H       0.71242   0.49197   0.25000 
H          H       0.50803   0.22045   0.25000 
H          H       0.77955   0.28758   0.25000 
H          H       0.28758   0.50803   0.25000 
H          H       0.49197   0.77955   0.25000 
H          H       0.22045   0.71242   0.25000 
H          H       0.50798   0.28743   0.25000 
H          H       0.71257   0.22055   0.25000 
H          H       0.77945   0.49202   0.25000 
H          H       0.49202   0.71257   0.25000 
H          H       0.28743   0.77945   0.25000 
H          H       0.22055   0.50798   0.25000 
C          C       0.33302   0.72290   0.75000 
C          C       0.27710   0.61012   0.75000 
C          C       0.38988   0.66698   0.75000 
C          C       0.66698   0.27710   0.75000 
C          C       0.72290   0.38988   0.75000 
C          C       0.61012   0.33302   0.75000 
C          C       0.44580   0.66674   0.75000 
C          C       0.33326   0.77906   0.75000 
C          C       0.22094   0.55420   0.75000 
C          C       0.55420   0.33326   0.75000 
C          C       0.66674   0.22094   0.75000 
C          C       0.77906   0.44580   0.75000 
C          C       0.44534   0.61102   0.75000 
C          C       0.38898   0.83432   0.75000 
C          C       0.16568   0.55466   0.75000 
C          C       0.55466   0.38898   0.75000 
C          C       0.61102   0.16568   0.75000 
C          C       0.83432   0.44534   0.75000 
O          O       0.38707   0.49825   0.75000 
O          O       0.50175   0.88882   0.75000 
O          O       0.11118   0.61293   0.75000 
O          O       0.61293   0.50175   0.75000 
O          O       0.49825   0.11118   0.75000 
O          O       0.88882   0.38707   0.75000 
C          C       0.44325   0.49883   0.75000 
C          C       0.50117   0.94442   0.75000 
C          C       0.05558   0.55675   0.75000 
C          C       0.55675   0.50117   0.75000 
C          C       0.49883   0.05558   0.75000 
C          C       0.94442   0.44325   0.75000 
O          O       0.61526   0.66936   0.75000 
O          O       0.33064   0.94590   0.75000 
O          O       0.05410   0.38474   0.75000 
O          O       0.38474   0.33064   0.75000 
O          O       0.66936   0.05410   0.75000 
O          O       0.94590   0.61526   0.75000 
C          C       0.72293   0.33309   0.75000 
C          C       0.66691   0.38984   0.75000 
C          C       0.61016   0.27707   0.75000 
C          C       0.27707   0.66691   0.75000 
C          C       0.33309   0.61016   0.75000 
C          C       0.38984   0.72293   0.75000 
C          C       0.66662   0.44573   0.75000 
C          C       0.55427   0.22089   0.75000 
C          C       0.77911   0.33338   0.75000 
C          C       0.33338   0.55427   0.75000 
C          C       0.44573   0.77911   0.75000 
C          C       0.22089   0.66662   0.75000 
C          C       0.61088   0.44522   0.75000 
C          C       0.55478   0.16566   0.75000 
C          C       0.83434   0.38912   0.75000 
C          C       0.38912   0.55478   0.75000 
C          C       0.44522   0.83434   0.75000 
C          C       0.16566   0.61088   0.75000 
O          O       0.49815   0.38694   0.75000 
O          O       0.61306   0.11121   0.75000 
O          O       0.88879   0.50185   0.75000 
O          O       0.50185   0.61306   0.75000 
O          O       0.38694   0.88879   0.75000 
O          O       0.11121   0.49815   0.75000 
C          C       0.49922   0.44368   0.75000 
C          C       0.55632   0.05554   0.75000 
C          C       0.94446   0.50078   0.75000 
C          C       0.50078   0.55632   0.75000 
C          C       0.44368   0.94446   0.75000 
C          C       0.05554   0.49922   0.75000 
O          O       0.67987   0.63248   0.75000 
O          O       0.36752   0.04739   0.75000 
O          O       0.95261   0.32013   0.75000 
O          O       0.32013   0.36752   0.75000 
O          O       0.63248   0.95261   0.75000 
O          O       0.04739   0.67987   0.75000 
C          C       0.55856   0.55859   0.75000 
C          C       0.44141   0.99997   0.75000 
C          C       0.00003   0.44144   0.75000 
C          C       0.44144   0.44141   0.75000 
C          C       0.55859   0.00003   0.75000 
C          C       0.99997   0.55856   0.75000 
C          C       0.61881   0.62208   0.75000 
C          C       0.37792   0.99673   0.75000 
C          C       0.00327   0.38119   0.75000 
C          C       0.38119   0.37792   0.75000 
C          C       0.62208   0.00327   0.75000 
C          C       0.99673   0.61881   0.75000 
H          H       0.68822   0.59697   0.75000 
H          H       0.40303   0.09125   0.75000 
H          H       0.90875   0.31178   0.75000 
H          H       0.31178   0.40303   0.75000 
H          H       0.59697   0.90875   0.75000 
H          H       0.09125   0.68822   0.75000 
H          H       0.71242   0.49197   0.75000 
H          H       0.50803   0.22045   0.75000 
H          H       0.77955   0.28758   0.75000 
H          H       0.28758   0.50803   0.75000 
H          H       0.49197   0.77955   0.75000 
H          H       0.22045   0.71242   0.75000 
H          H       0.50798   0.28743   0.75000 
H          H       0.71257   0.22055   0.75000 
H          H       0.77945   0.49202   0.75000 
H          H       0.49202   0.71257   0.75000 
H          H       0.28743   0.77945   0.75000 
H          H       0.22055   0.50798   0.75000 
