data_crystal

_cell_length_a    11.20000
_cell_length_b    11.05000
_cell_length_c    6.98000
_cell_angle_alpha 89.90000
_cell_angle_beta  90.30000
_cell_angle_gamma 59.90000

_space_group_name_Hall 'P 1'
_space_group_name_H-M_alt  'P 1'

loop_
_symmetry_equiv_pos_as_xyz
'x,y,z' 

loop_
_atom_site_label
_atom_site_type_symbol
_atom_site_fract_x
_atom_site_fract_y
_atom_site_fract_z
C          C       0.45823   0.42543   0.00372 
C          C       0.60951   0.36799   0.99797 
C          C       0.66156   0.46759   0.99808 
C          C       0.56694   0.62083   0.99658 
C          C       0.41656   0.67382   0.99564 
C          C       0.36004   0.57793   0.00268 
C          C       0.41247   0.32990   0.00352 
H          H       0.48725   0.21639   0.00430 
N          N       0.27665   0.36891   0.00234 
C          C       0.22873   0.27559   0.00200 
C          C       0.04749   0.23584   0.00038 
C          C       0.26807   0.05205   0.00262 
N          N       0.09063   0.33012   0.00066 
N          N       0.32180   0.13748   0.00298 
N          N       0.13187   0.09591   0.00139 
H          H       0.20632   0.47686   0.00161 
O          O       0.61415   0.70121   0.99614 
O          O       0.23346   0.62583   0.00180 
O          O       0.68916   0.23978   0.99898 
C          C       0.32204   0.81579   0.00194 
H          H       0.21013   0.85315   0.00126 
C          C       0.80155   0.42167   0.99964 
H          H       0.83803   0.49798   0.99973 
N          N       0.36032   0.91454   0.99492 
N          N       0.89938   0.28423   0.00823 
H          H       0.86368   0.21264   0.00804 
H          H       0.46677   0.87797   0.99565 
C          C       0.45823   0.42543   0.50016 
C          C       0.60951   0.36799   0.50152 
C          C       0.66156   0.46759   0.50164 
C          C       0.56694   0.62083   0.50013 
C          C       0.41656   0.67382   0.49919 
C          C       0.36004   0.57793   0.49913 
C          C       0.41247   0.32990   0.49996 
H          H       0.48725   0.21639   0.50075 
N          N       0.27665   0.36891   0.49878 
C          C       0.22873   0.27559   0.49845 
C          C       0.04749   0.23584   0.49682 
C          C       0.26807   0.05205   0.49906 
N          N       0.09063   0.33012   0.49711 
N          N       0.32180   0.13748   0.49942 
N          N       0.13187   0.09591   0.49783 
H          H       0.20632   0.47686   0.49806 
O          O       0.61415   0.70121   0.49969 
O          O       0.23346   0.62583   0.49824 
O          O       0.68916   0.23978   0.50253 
C          C       0.32204   0.81579   0.49839 
H          H       0.21013   0.85315   0.49771 
C          C       0.80155   0.42167   0.50319 
H          H       0.83803   0.49798   0.50328 
N          N       0.36032   0.91454   0.49847 
N          N       0.89938   0.28423   0.50468 
H          H       0.86368   0.21264   0.50449 
H          H       0.46677   0.87797   0.49920 
