data_crystal
 
_cell_length_a    22.83450
_cell_length_b    22.94340
_cell_length_c    6.87440
_cell_angle_alpha 89.85140
_cell_angle_beta  89.79640
_cell_angle_gamma 120.54300
 
_symmetry_space_group_name_Hall 'P 1'
_symmetry_space_group_name_H-M  'P 1'
 
loop_
_symmetry_equiv_pos_as_xyz
 'x,y,z' 
 
loop_
_atom_site_label
_atom_site_type_symbol
_atom_site_fract_x
_atom_site_fract_y
_atom_site_fract_z
Li         Li      0.71269   0.74818   0.81589 
Li         Li      0.03304   0.82067   0.71507 
Li         Li      0.77744   0.45280   0.96436 
Li         Li      0.97891   0.22751   0.76521 
Li         Li      0.29879   0.30188   0.65421 
Li         Li      0.23300   0.59338   0.41506 
C          C       0.98814   0.94125   0.00245 
C          C       0.05762   0.98578   0.95916 
C          C       0.08422   0.05529   0.95015 
C          C       0.04221   0.08253   0.98048 
C          C       0.97249   0.03845   0.01705 
C          C       0.94612   0.96880   0.02891 
C          C       0.13211   0.20340   0.97065 
C          C       0.90148   0.81966   0.00147 
C          C       0.87928   0.75026   0.99581 
C          C       0.92478   0.72400   0.97129 
C          C       0.80576   0.70491   0.99520 
C          C       0.89660   0.65066   0.98331 
C          C       0.77867   0.63241   0.99378 
C          C       0.82346   0.60453   0.98766 
C          C       0.15428   0.27268   0.97326 
C          C       0.10713   0.29730   0.98221 
C          C       0.22771   0.31999   0.95732 
C          C       0.13413   0.36973   0.99373 
C          C       0.25378   0.39187   0.97962 
C          C       0.20720   0.41823   0.99252 
C          C       0.32367   0.44022   0.97892 
C          C       0.94406   0.62912   0.97899 
C          C       0.70850   0.58576   0.98836 
C          C       0.08672   0.39127   0.99912 
C          C       0.97351   0.53877   0.99873 
C          C       0.94530   0.46814   0.02558 
C          C       0.04373   0.57884   0.96712 
C          C       0.98703   0.44004   0.02756 
C          C       0.08495   0.55047   0.96522 
C          C       0.05739   0.48099   0.99829 
C          C       0.44540   0.47278   0.97633 
C          C       0.48768   0.44471   0.97607 
C          C       0.47532   0.54329   0.98432 
C          C       0.55784   0.48618   0.98615 
C          C       0.54578   0.58511   0.99390 
C          C       0.58825   0.55681   0.99584 
C          C       0.97011   0.96635   0.50121 
C          C       0.92806   0.99357   0.53094 
C          C       0.95461   0.06305   0.52090 
C          C       0.02413   0.10756   0.47809 
C          C       0.06627   0.08007   0.45274 
C          C       0.03988   0.01042   0.46518 
C          C       0.11058   0.22926   0.47534 
C          C       0.87995   0.84563   0.50572 
C          C       0.85722   0.77621   0.50319 
C          C       0.90391   0.75096   0.49845 
C          C       0.78354   0.72948   0.51553 
C          C       0.87625   0.67835   0.48800 
C          C       0.75690   0.65749   0.49361 
C          C       0.80302   0.63045   0.48541 
C          C       0.13217   0.29852   0.47946 
C          C       0.08620   0.32411   0.50624 
C          C       0.20552   0.34449   0.47745 
C          C       0.11366   0.39727   0.49832 
C          C       0.23186   0.41686   0.47844 
C          C       0.18644   0.44387   0.48611 
C          C       0.30195   0.46404   0.48210 
C          C       0.92302   0.65600   0.48730 
C          C       0.68689   0.60958   0.49175 
C          C       0.06575   0.41835   0.49974 
C          C       0.95164   0.56579   0.49155 
C          C       0.02230   0.60706   0.46921 
C          C       0.92399   0.49606   0.52049 
C          C       0.06446   0.57946   0.47473 
C          C       0.96575   0.46827   0.52556 
C          C       0.03637   0.50890   0.50201 
C          C       0.42238   0.49351   0.47268 
C          C       0.45286   0.56416   0.48238 
C          C       0.46488   0.46525   0.47406 
C          C       0.52305   0.60557   0.49226 
C          C       0.53533   0.50700   0.48348 
C          C       0.56533   0.57750   0.49180 
O          O       0.98764   0.76363   0.93513 
O          O       0.26779   0.29812   0.91641 
O          O       0.22932   0.48126   0.99894 
O          O       0.04286   0.25550   0.97488 
O          O       0.76578   0.72855   0.99071 
O          O       0.79889   0.54068   0.98119 
O          O       0.62906   0.69880   0.16947 
O          O       0.52061   0.68380   0.03165 
O          O       0.61716   0.70279   0.81811 
O          O       0.08429   0.91484   0.72036 
O          O       0.10167   0.90720   0.07059 
O          O       0.18142   0.01282   0.88272 
O          O       0.82500   0.40792   0.85486 
O          O       0.82887   0.44373   0.18423 
O          O       0.84789   0.34671   0.12081 
O          O       0.96818   0.79231   0.50832 
O          O       0.24605   0.32149   0.47935 
O          O       0.21025   0.50772   0.48191 
O          O       0.02349   0.28406   0.54372 
O          O       0.74369   0.75191   0.55312 
O          O       0.78039   0.56735   0.48079 
O          O       0.83034   0.03579   0.59084 
O          O       0.91103   0.14162   0.40546 
O          O       0.92642   0.13355   0.75702 
O          O       0.49047   0.36689   0.43508 
O          O       0.38173   0.35150   0.29862 
O          O       0.39415   0.34755   0.64996 
O          O       0.16259   0.70553   0.46036 
O          O       0.17864   0.62176   0.26864 
O          O       0.18686   0.62061   0.61577 
N          N       0.06717   0.15288   0.97687 
N          N       0.96516   0.87116   0.01445 
N          N       0.37451   0.42745   0.97119 
N          N       0.93006   0.56553   0.00543 
N          N       0.65937   0.60047   0.00969 
N          N       0.10244   0.45583   0.99836 
N          N       0.04696   0.17757   0.46481 
N          N       0.94502   0.89595   0.50450 
N          N       0.35130   0.44973   0.45915 
N          N       0.90676   0.59121   0.48744 
N          N       0.63625   0.62270   0.49739 
N          N       0.08022   0.48253   0.50988 
S          S       0.57965   0.67579   0.00757 
S          S       0.11368   0.95377   0.90599 
S          S       0.85476   0.40971   0.05058 
S          S       0.89817   0.09492   0.57043 
S          S       0.43130   0.37463   0.46008 
S          S       0.15516   0.63876   0.45281 
H          H       0.13817   0.08632   0.91542 
H          H       0.93893   0.05876   0.03826 
H          H       0.89227   0.93662   0.06361 
H          H       0.00393   0.86047   0.03269 
H          H       0.03252   0.16919   0.98231 
H          H       0.17151   0.18987   0.96615 
H          H       0.86152   0.83230   0.99548 
H          H       0.33677   0.49300   0.98813 
H          H       0.99694   0.66838   0.95470 
H          H       0.69337   0.53303   0.96457 
H          H       0.03300   0.35228   0.00210 
H          H       0.35919   0.37683   0.96963 
H          H       0.88101   0.53181   0.04863 
H          H       0.06793   0.63323   0.94372 
H          H       0.96233   0.38578   0.05459 
H          H       0.13892   0.58315   0.93656 
H          H       0.46534   0.39009   0.97067 
H          H       0.44552   0.56819   0.98506 
H          H       0.58845   0.46213   0.99034 
H          H       0.67561   0.65027   0.04445 
H          H       0.15484   0.48912   0.99458 
H          H       0.12016   0.11233   0.41850 
H          H       0.07341   0.99000   0.44517 
H          H       0.97967   0.87965   0.50284 
H          H       0.00813   0.18820   0.44653 
H          H       0.15080   0.21696   0.48019 
H          H       0.84077   0.85948   0.50612 
H          H       0.31684   0.51666   0.50704 
H          H       0.97687   0.69458   0.48873 
H          H       0.67354   0.55672   0.48264 
H          H       0.01235   0.37860   0.49107 
H          H       0.33511   0.39993   0.42446 
H          H       0.85428   0.55826   0.48590 
H          H       0.86964   0.46275   0.54137 
H          H       0.94179   0.41401   0.55136 
H          H       0.42233   0.58830   0.47865 
H          H       0.54541   0.66019   0.49792 
H          H       0.65171   0.67335   0.49915 
H          H       0.13087   0.51709   0.53066 
H          H       0.87407   0.96254   0.56550 
H          H       0.56505   0.48202   0.48200 
H          H       0.04721   0.66157   0.44684 
