data_crystal

_cell_length_a    43.82000
_cell_length_b    44.57000
_cell_length_c    6.96000
_cell_angle_alpha 89.79000
_cell_angle_beta  89.53000
_cell_angle_gamma 122.76000

_space_group_name_Hall 'P 1'
_space_group_name_H-M_alt  'P 1'

loop_
_symmetry_equiv_pos_as_xyz
'x,y,z' 

loop_
_atom_site_label
_atom_site_type_symbol
_atom_site_fract_x
_atom_site_fract_y
_atom_site_fract_z
N          N       0.47822   0.44153   0.25000 
C          C       0.51432   0.46933   0.25000 
C          C       0.54376   0.46256   0.25000 
S          S       0.53744   0.42101   0.25000 
C          C       0.51747   0.50174   0.25000 
C          C       0.45834   0.45970   0.25000 
O          O       0.42581   0.44320   0.25000 
C          C       0.57845   0.48875   0.25000 
C          C       0.60049   0.47518   0.25000 
C          C       0.58188   0.43912   0.25000 
B          B       0.59987   0.41656   0.25000 
O          O       0.63787   0.43160   0.25000 
O          O       0.58032   0.37827   0.25000 
C          C       0.63990   0.40125   0.25000 
C          C       0.60763   0.37121   0.25000 
C          C       0.60280   0.33675   0.25000 
C          C       0.67072   0.40023   0.25000 
C          C       0.66893   0.36701   0.25000 
C          C       0.63494   0.33539   0.25000 
H          H       0.42478   0.68696   0.25000 
H          H       0.49348   0.86341   0.25000 
H          H       0.06807   0.58547   0.25000 
H          H       0.27132   0.69699   0.25000 
N          N       0.55847   0.03669   0.25000 
C          C       0.53067   0.04499   0.25000 
C          C       0.53744   0.08121   0.25000 
S          S       0.57899   0.11643   0.25000 
C          C       0.49826   0.01573   0.25000 
C          C       0.54030   0.99864   0.25000 
O          O       0.55680   0.98261   0.25000 
C          C       0.51125   0.08970   0.25000 
C          C       0.52482   0.12531   0.25000 
C          C       0.56088   0.14275   0.25000 
B          B       0.58344   0.18331   0.25000 
O          O       0.56840   0.20627   0.25000 
O          O       0.62173   0.20205   0.25000 
C          C       0.59875   0.23865   0.25000 
C          C       0.62879   0.23642   0.25000 
C          C       0.66325   0.26604   0.25000 
C          C       0.59977   0.27048   0.25000 
C          C       0.63299   0.30192   0.25000 
C          C       0.66461   0.29954   0.25000 
H          H       0.31304   0.73783   0.25000 
H          H       0.13659   0.63008   0.25000 
H          H       0.41453   0.48260   0.25000 
H          H       0.30301   0.57433   0.25000 
C          C       0.40260   0.93780   0.25000 
C          C       0.37678   0.89805   0.25000 
C          C       0.33809   0.88858   0.25000 
C          C       0.27423   0.83882   0.25000 
C          C       0.24305   0.80106   0.25000 
C          C       0.37013   0.86026   0.25000 
H          H       0.39250   0.94778   0.13053 
H          H       0.39032   0.94214   0.38173 
H          H       0.37678   0.89805   0.41134 
H          H       0.33282   0.90033   0.11897 
H          H       0.33252   0.89993   0.38173 
H          H       0.31839   0.83695   0.38088 
H          H       0.31789   0.83676   0.11827 
H          H       0.27046   0.85261   0.12329 
H          H       0.26850   0.85004   0.38173 
H          H       0.24666   0.78547   0.36777 
H          H       0.24168   0.78823   0.10774 
H          H       0.21772   0.80152   0.27448 
N          N       0.96331   0.52178   0.25000 
C          C       0.95501   0.48568   0.25000 
C          C       0.91879   0.45624   0.25000 
S          S       0.88357   0.46256   0.25000 
C          C       0.98427   0.48253   0.25000 
C          C       0.00136   0.54166   0.25000 
O          O       0.01739   0.57419   0.25000 
C          C       0.91030   0.42155   0.25000 
C          C       0.87469   0.39951   0.25000 
C          C       0.85725   0.41812   0.25000 
B          B       0.81669   0.40013   0.25000 
O          O       0.79373   0.36213   0.25000 
O          O       0.79795   0.41968   0.25000 
C          C       0.76135   0.36010   0.25000 
C          C       0.76358   0.39237   0.25000 
C          C       0.73396   0.39720   0.25000 
C          C       0.72952   0.32928   0.25000 
C          C       0.69808   0.33107   0.25000 
C          C       0.70046   0.36506   0.25000 
H          H       0.26217   0.57522   0.25000 
H          H       0.36992   0.50652   0.25000 
H          H       0.51740   0.93193   0.25000 
H          H       0.42567   0.72868   0.25000 
C          C       0.06220   0.46479   0.25000 
C          C       0.10195   0.47874   0.25000 
C          C       0.11142   0.44951   0.25000 
C          C       0.15134   0.46437   0.25000 
C          C       0.16118   0.43541   0.25000 
C          C       0.19894   0.44199   0.25000 
C          C       0.13974   0.50987   0.25000 
H          H       0.05222   0.44472   0.13053 
H          H       0.05786   0.44817   0.38173 
H          H       0.10195   0.47874   0.41134 
H          H       0.09967   0.43249   0.11897 
H          H       0.10007   0.43259   0.38173 
H          H       0.16305   0.48144   0.38088 
H          H       0.16324   0.48112   0.11827 
H          H       0.14739   0.41785   0.12329 
H          H       0.14996   0.41846   0.38173 
H          H       0.21453   0.46119   0.36777 
H          H       0.21177   0.45345   0.10774 
H          H       0.19848   0.41619   0.27448 
N          N       0.52178   0.55847   0.25000 
C          C       0.48568   0.53067   0.25000 
C          C       0.45624   0.53744   0.25000 
S          S       0.46256   0.57899   0.25000 
C          C       0.48253   0.49826   0.25000 
C          C       0.54166   0.54030   0.25000 
O          O       0.57419   0.55680   0.25000 
C          C       0.42155   0.51125   0.25000 
C          C       0.39951   0.52482   0.25000 
C          C       0.41812   0.56088   0.25000 
B          B       0.40013   0.58344   0.25000 
O          O       0.36213   0.56840   0.25000 
O          O       0.41968   0.62173   0.25000 
C          C       0.36010   0.59875   0.25000 
C          C       0.39237   0.62879   0.25000 
C          C       0.39720   0.66325   0.25000 
C          C       0.32928   0.59977   0.25000 
C          C       0.33107   0.63299   0.25000 
C          C       0.36506   0.66461   0.25000 
H          H       0.57522   0.31304   0.25000 
H          H       0.50652   0.13659   0.25000 
H          H       0.93193   0.41453   0.25000 
H          H       0.72868   0.30301   0.25000 
C          C       0.46479   0.40260   0.25000 
C          C       0.47874   0.37678   0.25000 
C          C       0.44951   0.33809   0.25000 
C          C       0.46437   0.31303   0.25000 
C          C       0.43541   0.27423   0.25000 
C          C       0.44199   0.24305   0.25000 
C          C       0.50987   0.37013   0.25000 
H          H       0.44472   0.39250   0.13053 
H          H       0.44817   0.39032   0.38173 
H          H       0.47874   0.37678   0.41134 
H          H       0.43249   0.33282   0.11897 
H          H       0.43259   0.33252   0.38173 
H          H       0.48144   0.31839   0.38088 
H          H       0.48112   0.31789   0.11827 
H          H       0.41785   0.27046   0.12329 
H          H       0.41846   0.26850   0.38173 
H          H       0.46119   0.24666   0.36777 
H          H       0.45345   0.24168   0.10774 
H          H       0.41619   0.21772   0.27448 
N          N       0.44153   0.96331   0.25000 
C          C       0.46933   0.95501   0.25000 
C          C       0.46256   0.91879   0.25000 
S          S       0.42101   0.88357   0.25000 
C          C       0.50174   0.98427   0.25000 
C          C       0.45970   0.00136   0.25000 
O          O       0.44320   0.01739   0.25000 
C          C       0.48875   0.91030   0.25000 
C          C       0.47518   0.87469   0.25000 
C          C       0.43912   0.85725   0.25000 
B          B       0.41656   0.81669   0.25000 
O          O       0.43160   0.79373   0.25000 
O          O       0.37827   0.79795   0.25000 
C          C       0.40125   0.76135   0.25000 
C          C       0.37121   0.76358   0.25000 
C          C       0.33675   0.73396   0.25000 
C          C       0.40023   0.72952   0.25000 
C          C       0.36701   0.69808   0.25000 
C          C       0.33539   0.70046   0.25000 
H          H       0.68696   0.26217   0.25000 
H          H       0.86341   0.36992   0.25000 
H          H       0.58547   0.51740   0.25000 
H          H       0.69699   0.42567   0.25000 
C          C       0.59740   0.06220   0.25000 
C          C       0.62322   0.10195   0.25000 
C          C       0.66191   0.11142   0.25000 
C          C       0.68697   0.15134   0.25000 
C          C       0.72577   0.16118   0.25000 
C          C       0.75695   0.19894   0.25000 
C          C       0.62987   0.13974   0.25000 
H          H       0.60750   0.05222   0.13053 
H          H       0.60968   0.05786   0.38173 
H          H       0.62322   0.10195   0.41134 
H          H       0.66718   0.09967   0.11897 
H          H       0.66748   0.10007   0.38173 
H          H       0.68161   0.16305   0.38088 
H          H       0.68211   0.16324   0.11827 
H          H       0.72954   0.14739   0.12329 
H          H       0.73150   0.14996   0.38173 
H          H       0.75334   0.21453   0.36777 
H          H       0.75832   0.21177   0.10774 
H          H       0.78228   0.19848   0.27448 
N          N       0.03669   0.47822   0.25000 
C          C       0.04499   0.51432   0.25000 
C          C       0.08121   0.54376   0.25000 
S          S       0.11643   0.53744   0.25000 
C          C       0.01573   0.51747   0.25000 
C          C       0.99864   0.45834   0.25000 
O          O       0.98261   0.42581   0.25000 
C          C       0.08970   0.57845   0.25000 
C          C       0.12531   0.60049   0.25000 
C          C       0.14275   0.58188   0.25000 
B          B       0.18331   0.59987   0.25000 
O          O       0.20627   0.63787   0.25000 
O          O       0.20205   0.58032   0.25000 
C          C       0.23865   0.63990   0.25000 
C          C       0.23642   0.60763   0.25000 
C          C       0.26604   0.60280   0.25000 
C          C       0.27048   0.67072   0.25000 
C          C       0.30192   0.66893   0.25000 
C          C       0.29954   0.63494   0.25000 
H          H       0.73783   0.42478   0.25000 
H          H       0.63008   0.49348   0.25000 
H          H       0.48260   0.06807   0.25000 
H          H       0.57433   0.27132   0.25000 
C          C       0.93780   0.53521   0.25000 
C          C       0.89805   0.52126   0.25000 
C          C       0.88858   0.55049   0.25000 
C          C       0.83882   0.56459   0.25000 
C          C       0.80106   0.55801   0.25000 
C          C       0.86026   0.49013   0.25000 
H          H       0.94778   0.55528   0.13053 
H          H       0.94214   0.55183   0.38173 
H          H       0.89805   0.52126   0.41134 
H          H       0.90033   0.56751   0.11897 
H          H       0.89993   0.56741   0.38173 
H          H       0.85261   0.58215   0.12329 
H          H       0.85004   0.58154   0.38173 
H          H       0.78547   0.53881   0.36777 
H          H       0.78823   0.54655   0.10774 
H          H       0.80152   0.58381   0.27448 
C          C       0.54923   0.59823   0.24768 
H          H       0.56677   0.60630   0.11181 
H          H       0.56697   0.60592   0.38041 
C          C       0.52703   0.61569   0.24841 
H          H       0.52703   0.61569   0.08451 
C          C       0.55525   0.65619   0.24603 
H          H       0.57402   0.66130   0.11845 
H          H       0.57297   0.66376   0.37877 
C          C       0.54976   0.68752   0.24560 
H          H       0.53164   0.68322   0.37500 
H          H       0.53394   0.68597   0.11262 
C          C       0.58024   0.72738   0.24311 
H          H       0.59864   0.73042   0.11762 
H          H       0.59774   0.73373   0.37589 
C          C       0.58099   0.76233   0.24227 
H          H       0.59530   0.77826   0.10598 
H          H       0.59620   0.77873   0.37353 
H          H       0.55201   0.75586   0.24668 
C          C       0.50239   0.63049   0.24935 
C          C       0.31303   0.84866   0.25000 
C          C       0.84866   0.53563   0.25000 
H          H       0.83676   0.51888   0.11827 
H          H       0.83695   0.51856   0.38088 
C          C       0.46982   0.62721   0.38310 
H          H       0.48972   0.62227   0.11219 
H          H       0.52273   0.65541   0.31006 
H          H       0.44474   0.60307   0.34984 
H          H       0.46756   0.64956   0.35554 
H          H       0.47585   0.62683   0.53142 
C          C       0.83990   0.47956   0.43763 
H          H       0.86082   0.46775   0.20015 
H          H       0.84599   0.49799   0.16036 
H          H       0.85262   0.47127   0.53619 
H          H       0.81250   0.45801   0.41524 
H          H       0.84005   0.50185   0.49549 
C          C       0.34553   0.82086   0.25251 
H          H       0.36125   0.80907   0.25976 
H          H       0.32977   0.81239   0.12440 
H          H       0.32782   0.81267   0.37519 
H          H       0.38580   0.86295   0.37338 
H          H       0.36706   0.85978   0.09748 
C          C       0.17589   0.53161   0.28610 
H          H       0.13297   0.52835   0.29847 
H          H       0.14647   0.49474   0.16051 
H          H       0.18029   0.55235   0.38132 
H          H       0.19038   0.54316   0.15415 
H          H       0.18538   0.51638   0.35119 
C          C       0.65226   0.16752   0.13417 
H          H       0.63876   0.14934   0.39230 
H          H       0.60449   0.13338   0.19237 
H          H       0.67981   0.17772   0.17188 
H          H       0.64676   0.18802   0.15043 
H          H       0.64803   0.15889  -0.01193 
C          C       0.52756   0.34223   0.23189 
H          H       0.52076   0.38131   0.38744 
H          H       0.50999   0.37120   0.09637 
H          H       0.53129   0.33516   0.37288 
H          H       0.55306   0.35631   0.15680 
H          H       0.50890   0.31855   0.15518 
N          N       0.47822   0.44153   0.75000 
C          C       0.51432   0.46933   0.75000 
C          C       0.54376   0.46256   0.75000 
S          S       0.53744   0.42101   0.75000 
C          C       0.51747   0.50174   0.75000 
C          C       0.45834   0.45970   0.75000 
O          O       0.42581   0.44320   0.75000 
C          C       0.57845   0.48875   0.75000 
C          C       0.60049   0.47518   0.75000 
C          C       0.58188   0.43912   0.75000 
B          B       0.59987   0.41656   0.75000 
O          O       0.63787   0.43160   0.75000 
O          O       0.58032   0.37827   0.75000 
C          C       0.63990   0.40125   0.75000 
C          C       0.60763   0.37121   0.75000 
C          C       0.60280   0.33675   0.75000 
C          C       0.67072   0.40023   0.75000 
C          C       0.66893   0.36701   0.75000 
C          C       0.63494   0.33539   0.75000 
H          H       0.42478   0.68696   0.75000 
H          H       0.49348   0.86341   0.75000 
H          H       0.06807   0.58547   0.75000 
H          H       0.27132   0.69699   0.75000 
N          N       0.55847   0.03669   0.75000 
C          C       0.53067   0.04499   0.75000 
C          C       0.53744   0.08121   0.75000 
S          S       0.57899   0.11643   0.75000 
C          C       0.49826   0.01573   0.75000 
C          C       0.54030   0.99864   0.75000 
O          O       0.55680   0.98261   0.75000 
C          C       0.51125   0.08970   0.75000 
C          C       0.52482   0.12531   0.75000 
C          C       0.56088   0.14275   0.75000 
B          B       0.58344   0.18331   0.75000 
O          O       0.56840   0.20627   0.75000 
O          O       0.62173   0.20205   0.75000 
C          C       0.59875   0.23865   0.75000 
C          C       0.62879   0.23642   0.75000 
C          C       0.66325   0.26604   0.75000 
C          C       0.59977   0.27048   0.75000 
C          C       0.63299   0.30192   0.75000 
C          C       0.66461   0.29954   0.75000 
H          H       0.31304   0.73783   0.75000 
H          H       0.13659   0.63008   0.75000 
H          H       0.41453   0.48260   0.75000 
H          H       0.30301   0.57433   0.75000 
C          C       0.40260   0.93780   0.75000 
C          C       0.37678   0.89805   0.75000 
C          C       0.33809   0.88858   0.75000 
C          C       0.27423   0.83882   0.75000 
C          C       0.24305   0.80106   0.75000 
C          C       0.37013   0.86026   0.75000 
H          H       0.39250   0.94778   0.63053 
H          H       0.39032   0.94214   0.88173 
H          H       0.37678   0.89805   0.91134 
H          H       0.33282   0.90033   0.61896 
H          H       0.33252   0.89993   0.88173 
H          H       0.31839   0.83695   0.88087 
H          H       0.31789   0.83676   0.61827 
H          H       0.27046   0.85261   0.62329 
H          H       0.26850   0.85004   0.88173 
H          H       0.24666   0.78547   0.86777 
H          H       0.24168   0.78823   0.60774 
H          H       0.21772   0.80152   0.77448 
N          N       0.96331   0.52178   0.75000 
C          C       0.95501   0.48568   0.75000 
C          C       0.91879   0.45624   0.75000 
S          S       0.88357   0.46256   0.75000 
C          C       0.98427   0.48253   0.75000 
C          C       0.00136   0.54166   0.75000 
O          O       0.01739   0.57419   0.75000 
C          C       0.91030   0.42155   0.75000 
C          C       0.87469   0.39951   0.75000 
C          C       0.85725   0.41812   0.75000 
B          B       0.81669   0.40013   0.75000 
O          O       0.79373   0.36213   0.75000 
O          O       0.79795   0.41968   0.75000 
C          C       0.76135   0.36010   0.75000 
C          C       0.76358   0.39237   0.75000 
C          C       0.73396   0.39720   0.75000 
C          C       0.72952   0.32928   0.75000 
C          C       0.69808   0.33107   0.75000 
C          C       0.70046   0.36506   0.75000 
H          H       0.26217   0.57522   0.75000 
H          H       0.36992   0.50652   0.75000 
H          H       0.51740   0.93193   0.75000 
H          H       0.42567   0.72868   0.75000 
C          C       0.06220   0.46479   0.75000 
C          C       0.10195   0.47874   0.75000 
C          C       0.11142   0.44951   0.75000 
C          C       0.15134   0.46437   0.75000 
C          C       0.16118   0.43541   0.75000 
C          C       0.19894   0.44199   0.75000 
C          C       0.13974   0.50987   0.75000 
H          H       0.05222   0.44472   0.63053 
H          H       0.05786   0.44817   0.88173 
H          H       0.10195   0.47874   0.91134 
H          H       0.09967   0.43249   0.61896 
H          H       0.10007   0.43259   0.88173 
H          H       0.16305   0.48144   0.88087 
H          H       0.16324   0.48112   0.61827 
H          H       0.14739   0.41785   0.62329 
H          H       0.14996   0.41846   0.88173 
H          H       0.21453   0.46119   0.86777 
H          H       0.21177   0.45345   0.60774 
H          H       0.19848   0.41619   0.77448 
N          N       0.52178   0.55847   0.75000 
C          C       0.48568   0.53067   0.75000 
C          C       0.45624   0.53744   0.75000 
S          S       0.46256   0.57899   0.75000 
C          C       0.48253   0.49826   0.75000 
C          C       0.54166   0.54030   0.75000 
O          O       0.57419   0.55680   0.75000 
C          C       0.42155   0.51125   0.75000 
C          C       0.39951   0.52482   0.75000 
C          C       0.41812   0.56088   0.75000 
B          B       0.40013   0.58344   0.75000 
O          O       0.36213   0.56840   0.75000 
O          O       0.41968   0.62173   0.75000 
C          C       0.36010   0.59875   0.75000 
C          C       0.39237   0.62879   0.75000 
C          C       0.39720   0.66325   0.75000 
C          C       0.32928   0.59977   0.75000 
C          C       0.33107   0.63299   0.75000 
C          C       0.36506   0.66461   0.75000 
H          H       0.57522   0.31304   0.75000 
H          H       0.50652   0.13659   0.75000 
H          H       0.93193   0.41453   0.75000 
H          H       0.72868   0.30301   0.75000 
C          C       0.46479   0.40260   0.75000 
C          C       0.47874   0.37678   0.75000 
C          C       0.44951   0.33809   0.75000 
C          C       0.46437   0.31303   0.75000 
C          C       0.43541   0.27423   0.75000 
C          C       0.44199   0.24305   0.75000 
C          C       0.50987   0.37013   0.75000 
H          H       0.44472   0.39250   0.63053 
H          H       0.44817   0.39032   0.88173 
H          H       0.47874   0.37678   0.91134 
H          H       0.43249   0.33282   0.61896 
H          H       0.43259   0.33252   0.88173 
H          H       0.48144   0.31839   0.88087 
H          H       0.48112   0.31789   0.61827 
H          H       0.41785   0.27046   0.62329 
H          H       0.41846   0.26850   0.88173 
H          H       0.46119   0.24666   0.86777 
H          H       0.45345   0.24168   0.60774 
H          H       0.41619   0.21772   0.77448 
N          N       0.44153   0.96331   0.75000 
C          C       0.46933   0.95501   0.75000 
C          C       0.46256   0.91879   0.75000 
S          S       0.42101   0.88357   0.75000 
C          C       0.50174   0.98427   0.75000 
C          C       0.45970   0.00136   0.75000 
O          O       0.44320   0.01739   0.75000 
C          C       0.48875   0.91030   0.75000 
C          C       0.47518   0.87469   0.75000 
C          C       0.43912   0.85725   0.75000 
B          B       0.41656   0.81669   0.75000 
O          O       0.43160   0.79373   0.75000 
O          O       0.37827   0.79795   0.75000 
C          C       0.40125   0.76135   0.75000 
C          C       0.37121   0.76358   0.75000 
C          C       0.33675   0.73396   0.75000 
C          C       0.40023   0.72952   0.75000 
C          C       0.36701   0.69808   0.75000 
C          C       0.33539   0.70046   0.75000 
H          H       0.68696   0.26217   0.75000 
H          H       0.86341   0.36992   0.75000 
H          H       0.58547   0.51740   0.75000 
H          H       0.69699   0.42567   0.75000 
C          C       0.59740   0.06220   0.75000 
C          C       0.62322   0.10195   0.75000 
C          C       0.66191   0.11142   0.75000 
C          C       0.68697   0.15134   0.75000 
C          C       0.72577   0.16118   0.75000 
C          C       0.75695   0.19894   0.75000 
C          C       0.62987   0.13974   0.75000 
H          H       0.60750   0.05222   0.63053 
H          H       0.60968   0.05786   0.88173 
H          H       0.62322   0.10195   0.91134 
H          H       0.66718   0.09967   0.61896 
H          H       0.66748   0.10007   0.88173 
H          H       0.68161   0.16305   0.88087 
H          H       0.68211   0.16324   0.61827 
H          H       0.72954   0.14739   0.62329 
H          H       0.73150   0.14996   0.88173 
H          H       0.75334   0.21453   0.86777 
H          H       0.75832   0.21177   0.60774 
H          H       0.78228   0.19848   0.77448 
N          N       0.03669   0.47822   0.75000 
C          C       0.04499   0.51432   0.75000 
C          C       0.08121   0.54376   0.75000 
S          S       0.11643   0.53744   0.75000 
C          C       0.01573   0.51747   0.75000 
C          C       0.99864   0.45834   0.75000 
O          O       0.98261   0.42581   0.75000 
C          C       0.08970   0.57845   0.75000 
C          C       0.12531   0.60049   0.75000 
C          C       0.14275   0.58188   0.75000 
B          B       0.18331   0.59987   0.75000 
O          O       0.20627   0.63787   0.75000 
O          O       0.20205   0.58032   0.75000 
C          C       0.23865   0.63990   0.75000 
C          C       0.23642   0.60763   0.75000 
C          C       0.26604   0.60280   0.75000 
C          C       0.27048   0.67072   0.75000 
C          C       0.30192   0.66893   0.75000 
C          C       0.29954   0.63494   0.75000 
H          H       0.73783   0.42478   0.75000 
H          H       0.63008   0.49348   0.75000 
H          H       0.48260   0.06807   0.75000 
H          H       0.57433   0.27132   0.75000 
C          C       0.93780   0.53521   0.75000 
C          C       0.89805   0.52126   0.75000 
C          C       0.88858   0.55049   0.75000 
C          C       0.83882   0.56459   0.75000 
C          C       0.80106   0.55801   0.75000 
C          C       0.86026   0.49013   0.75000 
H          H       0.94778   0.55528   0.63053 
H          H       0.94214   0.55183   0.88173 
H          H       0.89805   0.52126   0.91134 
H          H       0.90033   0.56751   0.61896 
H          H       0.89993   0.56741   0.88173 
H          H       0.85261   0.58215   0.62329 
H          H       0.85004   0.58154   0.88173 
H          H       0.78547   0.53881   0.86777 
H          H       0.78823   0.54655   0.60774 
H          H       0.80152   0.58381   0.77448 
C          C       0.54923   0.59823   0.74767 
H          H       0.56677   0.60630   0.61181 
H          H       0.56697   0.60592   0.88041 
C          C       0.52703   0.61569   0.74841 
H          H       0.52703   0.61569   0.58451 
C          C       0.55525   0.65619   0.74603 
H          H       0.57402   0.66130   0.61845 
H          H       0.57297   0.66376   0.87877 
C          C       0.54976   0.68752   0.74560 
H          H       0.53164   0.68322   0.87500 
H          H       0.53394   0.68597   0.61262 
C          C       0.58024   0.72738   0.74311 
H          H       0.59864   0.73042   0.61762 
H          H       0.59774   0.73373   0.87589 
C          C       0.58099   0.76233   0.74227 
H          H       0.59530   0.77826   0.60598 
H          H       0.59620   0.77873   0.87353 
H          H       0.55201   0.75586   0.74668 
C          C       0.50239   0.63049   0.74935 
C          C       0.31303   0.84866   0.75000 
C          C       0.84866   0.53563   0.75000 
H          H       0.83676   0.51888   0.61827 
H          H       0.83695   0.51856   0.88087 
C          C       0.46982   0.62721   0.88311 
H          H       0.48972   0.62227   0.61219 
H          H       0.52273   0.65541   0.81006 
H          H       0.44474   0.60307   0.84984 
H          H       0.46756   0.64956   0.85554 
H          H       0.47585   0.62683   1.03142 
C          C       0.83990   0.47956   0.93763 
H          H       0.86082   0.46775   0.70015 
H          H       0.84599   0.49799   0.66036 
H          H       0.85262   0.47127   1.03619 
H          H       0.81250   0.45801   0.91524 
H          H       0.84005   0.50185   0.99548 
C          C       0.34553   0.82086   0.75251 
H          H       0.36125   0.80907   0.75976 
H          H       0.32977   0.81239   0.62440 
H          H       0.32782   0.81267   0.87519 
H          H       0.38580   0.86295   0.87337 
H          H       0.36706   0.85978   0.59747 
C          C       0.17589   0.53161   0.78611 
H          H       0.13297   0.52835   0.79847 
H          H       0.14647   0.49474   0.66051 
H          H       0.18029   0.55235   0.88131 
H          H       0.19038   0.54316   0.65414 
H          H       0.18538   0.51638   0.85119 
C          C       0.65226   0.16752   0.63416 
H          H       0.63876   0.14934   0.89229 
H          H       0.60449   0.13338   0.69238 
H          H       0.67981   0.17772   0.67188 
H          H       0.64676   0.18802   0.65043 
H          H       0.64803   0.15889   0.48806 
C          C       0.52756   0.34223   0.73190 
H          H       0.52076   0.38131   0.88744 
H          H       0.50999   0.37120   0.59637 
H          H       0.53129   0.33516   0.87288 
H          H       0.55306   0.35631   0.65681 
H          H       0.50890   0.31855   0.65518 
