data_crystal

_cell_length_a    31.33200
_cell_length_b    31.33200
_cell_length_c    6.52000
_cell_angle_alpha 90.00000
_cell_angle_beta  90.00000
_cell_angle_gamma 120.00000

_space_group_name_Hall 'P 1'
_space_group_name_H-M_alt  'P 1'

loop_
_symmetry_equiv_pos_as_xyz
'x,y,z' 

loop_
_atom_site_label
_atom_site_type_symbol
_atom_site_fract_x
_atom_site_fract_y
_atom_site_fract_z
C          C       0.79653   0.41993   0.25000 
C          C       0.58007   0.37660   0.25000 
C          C       0.62340   0.20347   0.25000 
C          C       0.20347   0.58007   0.25000 
C          C       0.41993   0.62340   0.25000 
C          C       0.37660   0.79653   0.25000 
C          C       0.83354   0.46902   0.25000 
C          C       0.53098   0.36452   0.25000 
C          C       0.63548   0.16646   0.25000 
C          C       0.16646   0.53098   0.25000 
C          C       0.46902   0.63548   0.25000 
C          C       0.36452   0.83354   0.25000 
C          C       0.88167   0.48031   0.25000 
C          C       0.51969   0.40136   0.25000 
C          C       0.59864   0.11833   0.25000 
C          C       0.11833   0.51969   0.25000 
C          C       0.48031   0.59864   0.25000 
C          C       0.40136   0.88167   0.25000 
C          C       0.89290   0.44247   0.25000 
C          C       0.55753   0.45043   0.25000 
C          C       0.54957   0.10710   0.25000 
C          C       0.10710   0.55753   0.25000 
C          C       0.44247   0.54957   0.25000 
C          C       0.45043   0.89290   0.25000 
C          C       0.85542   0.39378   0.25000 
C          C       0.60622   0.46164   0.25000 
C          C       0.53836   0.14458   0.25000 
C          C       0.14458   0.60622   0.25000 
C          C       0.39378   0.53836   0.25000 
C          C       0.46164   0.85542   0.25000 
C          C       0.80677   0.38174   0.25000 
C          C       0.61826   0.42503   0.25000 
C          C       0.57497   0.19323   0.25000 
C          C       0.19323   0.61826   0.25000 
C          C       0.38174   0.57497   0.25000 
C          C       0.42503   0.80677   0.25000 
C          C       0.94289   0.45386   0.25000 
C          C       0.54614   0.48903   0.25000 
C          C       0.51097   0.05711   0.25000 
C          C       0.05711   0.54614   0.25000 
C          C       0.45386   0.51097   0.25000 
C          C       0.48903   0.94289   0.25000 
N          N       0.97750   0.49903   0.25000 
N          N       0.50097   0.47847   0.25000 
N          N       0.52153   0.02250   0.25000 
N          N       0.02250   0.50097   0.25000 
N          N       0.49903   0.52153   0.25000 
N          N       0.47847   0.97750   0.25000 
O          O       0.24948   0.58744   0.25000 
O          O       0.41256   0.66204   0.25000 
O          O       0.33796   0.75052   0.25000 
O          O       0.75052   0.41256   0.25000 
O          O       0.58744   0.33796   0.25000 
O          O       0.66204   0.24948   0.25000 
H          H       0.82287   0.49731   0.25000 
H          H       0.50269   0.32556   0.25000 
H          H       0.67444   0.17713   0.25000 
H          H       0.17713   0.50269   0.25000 
H          H       0.49731   0.67444   0.25000 
H          H       0.32556   0.82287   0.25000 
H          H       0.91234   0.51824   0.25000 
H          H       0.48176   0.39410   0.25000 
H          H       0.60590   0.08766   0.25000 
H          H       0.08766   0.48176   0.25000 
H          H       0.51824   0.60590   0.25000 
H          H       0.39410   0.91234   0.25000 
H          H       0.86485   0.36452   0.25000 
H          H       0.63548   0.50033   0.25000 
H          H       0.49967   0.13515   0.25000 
H          H       0.13515   0.63548   0.25000 
H          H       0.36452   0.49967   0.25000 
H          H       0.50033   0.86485   0.25000 
H          H       0.77695   0.34372   0.25000 
H          H       0.65628   0.43323   0.25000 
H          H       0.56677   0.22305   0.25000 
H          H       0.22305   0.65628   0.25000 
H          H       0.34372   0.56677   0.25000 
H          H       0.43323   0.77695   0.25000 
H          H       0.95200   0.42408   0.25000 
H          H       0.57592   0.52792   0.25000 
H          H       0.47208   0.04800   0.25000 
H          H       0.04800   0.57592   0.25000 
H          H       0.42408   0.47208   0.25000 
H          H       0.52792   0.95200   0.25000 
N          N       0.29290   0.67226   0.25000 
N          N       0.32774   0.62064   0.25000 
N          N       0.37936   0.70710   0.25000 
N          N       0.70710   0.32774   0.25000 
N          N       0.67226   0.37936   0.25000 
N          N       0.62064   0.29290   0.25000 
C          C       0.70841   0.37288   0.25000 
C          C       0.62712   0.33553   0.25000 
C          C       0.66447   0.29159   0.25000 
C          C       0.29159   0.62712   0.25000 
C          C       0.37288   0.66447   0.25000 
C          C       0.33553   0.70841   0.25000 
C          C       0.79653   0.41993   0.75000 
C          C       0.58007   0.37660   0.75000 
C          C       0.62340   0.20347   0.75000 
C          C       0.20347   0.58007   0.75000 
C          C       0.41993   0.62340   0.75000 
C          C       0.37660   0.79653   0.75000 
C          C       0.83354   0.46902   0.75000 
C          C       0.53098   0.36452   0.75000 
C          C       0.63548   0.16646   0.75000 
C          C       0.16646   0.53098   0.75000 
C          C       0.46902   0.63548   0.75000 
C          C       0.36452   0.83354   0.75000 
C          C       0.88167   0.48031   0.75000 
C          C       0.51969   0.40136   0.75000 
C          C       0.59864   0.11833   0.75000 
C          C       0.11833   0.51969   0.75000 
C          C       0.48031   0.59864   0.75000 
C          C       0.40136   0.88167   0.75000 
C          C       0.89290   0.44247   0.75000 
C          C       0.55753   0.45043   0.75000 
C          C       0.54957   0.10710   0.75000 
C          C       0.10710   0.55753   0.75000 
C          C       0.44247   0.54957   0.75000 
C          C       0.45043   0.89290   0.75000 
C          C       0.85542   0.39378   0.75000 
C          C       0.60622   0.46164   0.75000 
C          C       0.53836   0.14458   0.75000 
C          C       0.14458   0.60622   0.75000 
C          C       0.39378   0.53836   0.75000 
C          C       0.46164   0.85542   0.75000 
C          C       0.80677   0.38174   0.75000 
C          C       0.61826   0.42503   0.75000 
C          C       0.57497   0.19323   0.75000 
C          C       0.19323   0.61826   0.75000 
C          C       0.38174   0.57497   0.75000 
C          C       0.42503   0.80677   0.75000 
C          C       0.94289   0.45386   0.75000 
C          C       0.54614   0.48903   0.75000 
C          C       0.51097   0.05711   0.75000 
C          C       0.05711   0.54614   0.75000 
C          C       0.45386   0.51097   0.75000 
C          C       0.48903   0.94289   0.75000 
N          N       0.97750   0.49903   0.75000 
N          N       0.50097   0.47847   0.75000 
N          N       0.52153   0.02250   0.75000 
N          N       0.02250   0.50097   0.75000 
N          N       0.49903   0.52153   0.75000 
N          N       0.47847   0.97750   0.75000 
O          O       0.24948   0.58744   0.75000 
O          O       0.41256   0.66204   0.75000 
O          O       0.33796   0.75052   0.75000 
O          O       0.75052   0.41256   0.75000 
O          O       0.58744   0.33796   0.75000 
O          O       0.66204   0.24948   0.75000 
H          H       0.82287   0.49731   0.75000 
H          H       0.50269   0.32556   0.75000 
H          H       0.67444   0.17713   0.75000 
H          H       0.17713   0.50269   0.75000 
H          H       0.49731   0.67444   0.75000 
H          H       0.32556   0.82287   0.75000 
H          H       0.91234   0.51824   0.75000 
H          H       0.48176   0.39410   0.75000 
H          H       0.60590   0.08766   0.75000 
H          H       0.08766   0.48176   0.75000 
H          H       0.51824   0.60590   0.75000 
H          H       0.39410   0.91234   0.75000 
H          H       0.86485   0.36452   0.75000 
H          H       0.63548   0.50033   0.75000 
H          H       0.49967   0.13515   0.75000 
H          H       0.13515   0.63548   0.75000 
H          H       0.36452   0.49967   0.75000 
H          H       0.50033   0.86485   0.75000 
H          H       0.77695   0.34372   0.75000 
H          H       0.65628   0.43323   0.75000 
H          H       0.56677   0.22305   0.75000 
H          H       0.22305   0.65628   0.75000 
H          H       0.34372   0.56677   0.75000 
H          H       0.43323   0.77695   0.75000 
H          H       0.95200   0.42408   0.75000 
H          H       0.57592   0.52792   0.75000 
H          H       0.47208   0.04800   0.75000 
H          H       0.04800   0.57592   0.75000 
H          H       0.42408   0.47208   0.75000 
H          H       0.52792   0.95200   0.75000 
N          N       0.29290   0.67226   0.75000 
N          N       0.32774   0.62064   0.75000 
N          N       0.37936   0.70710   0.75000 
N          N       0.70710   0.32774   0.75000 
N          N       0.67226   0.37936   0.75000 
N          N       0.62064   0.29290   0.75000 
C          C       0.70841   0.37288   0.75000 
C          C       0.62712   0.33553   0.75000 
C          C       0.66447   0.29159   0.75000 
C          C       0.29159   0.62712   0.75000 
C          C       0.37288   0.66447   0.75000 
C          C       0.33553   0.70841   0.75000 
