data_crystal

_cell_length_a    37.52600
_cell_length_b    37.52600
_cell_length_c    7.15000
_cell_angle_alpha 90.00000
_cell_angle_beta  90.00000
_cell_angle_gamma 120.00000

_space_group_name_Hall 'P 1'
_space_group_name_H-M_alt  'P 1'

loop_
_symmetry_equiv_pos_as_xyz
'x,y,z' 

loop_
_atom_site_label
_atom_site_type_symbol
_atom_site_fract_x
_atom_site_fract_y
_atom_site_fract_z
N          N       0.63440   0.29756   0.25000 
N          N       0.70244   0.33684   0.25000 
N          N       0.66316   0.36560   0.25000 
N          N       0.36560   0.70244   0.25000 
N          N       0.29756   0.66316   0.25000 
N          N       0.33684   0.63440   0.25000 
C          C       0.67075   0.30005   0.25000 
C          C       0.69995   0.37070   0.25000 
C          C       0.62930   0.32925   0.25000 
C          C       0.32925   0.69995   0.25000 
C          C       0.30005   0.62930   0.25000 
C          C       0.37070   0.67075   0.25000 
O          O       0.59288   0.32527   0.25000 
O          O       0.67473   0.26761   0.25000 
O          O       0.73239   0.40712   0.25000 
O          O       0.40712   0.67473   0.25000 
O          O       0.32527   0.73239   0.25000 
O          O       0.26761   0.59288   0.25000 
C          C       0.58548   0.35678   0.25000 
C          C       0.64322   0.22870   0.25000 
C          C       0.77130   0.41452   0.25000 
C          C       0.41452   0.64322   0.25000 
C          C       0.35678   0.77130   0.25000 
C          C       0.22870   0.58548   0.25000 
C          C       0.80284   0.45445   0.25000 
C          C       0.54555   0.34839   0.25000 
C          C       0.65161   0.19716   0.25000 
C          C       0.19716   0.54555   0.25000 
C          C       0.45445   0.65161   0.25000 
C          C       0.34839   0.80284   0.25000 
C          C       0.84214   0.46418   0.25000 
C          C       0.53582   0.37796   0.25000 
C          C       0.62204   0.15786   0.25000 
C          C       0.15786   0.53582   0.25000 
C          C       0.46418   0.62204   0.25000 
C          C       0.37796   0.84214   0.25000 
C          C       0.85198   0.43544   0.25000 
C          C       0.56456   0.41654   0.25000 
C          C       0.58346   0.14802   0.25000 
C          C       0.14802   0.56456   0.25000 
C          C       0.43544   0.58346   0.25000 
C          C       0.41654   0.85198   0.25000 
C          C       0.82230   0.39716   0.25000 
C          C       0.60284   0.42514   0.25000 
C          C       0.57486   0.17770   0.25000 
C          C       0.17770   0.60284   0.25000 
C          C       0.39716   0.57486   0.25000 
C          C       0.42514   0.82230   0.25000 
C          C       0.78304   0.38758   0.25000 
C          C       0.61242   0.39546   0.25000 
C          C       0.60454   0.21696   0.25000 
C          C       0.21696   0.61242   0.25000 
C          C       0.38758   0.60454   0.25000 
C          C       0.39546   0.78304   0.25000 
C          C       0.89289   0.44466   0.25000 
C          C       0.55534   0.44823   0.25000 
C          C       0.55177   0.10711   0.25000 
C          C       0.10711   0.55534   0.25000 
C          C       0.44466   0.55177   0.25000 
C          C       0.44823   0.89289   0.25000 
N          N       0.92144   0.47989   0.25000 
N          N       0.52011   0.44155   0.25000 
N          N       0.55845   0.07856   0.25000 
N          N       0.07856   0.52011   0.25000 
N          N       0.47989   0.55845   0.25000 
N          N       0.44155   0.92144   0.25000 
C          C       0.96173   0.49001   0.25000 
C          C       0.50999   0.47172   0.25000 
C          C       0.52828   0.03827   0.25000 
C          C       0.03827   0.50999   0.25000 
C          C       0.49001   0.52828   0.25000 
C          C       0.47172   0.96173   0.25000 
C          C       0.99054   0.52905   0.25000 
C          C       0.47095   0.46149   0.25000 
C          C       0.53851   0.00946   0.25000 
C          C       0.00946   0.47095   0.25000 
C          C       0.52905   0.53851   0.25000 
C          C       0.46149   0.99054   0.25000 
C          C       0.03011   0.53982   0.25000 
C          C       0.46018   0.49029   0.25000 
C          C       0.50971   0.96989   0.25000 
C          C       0.96989   0.46018   0.25000 
C          C       0.53982   0.50971   0.25000 
C          C       0.49029   0.03011   0.25000 
H          H       0.79352   0.47872   0.25000 
H          H       0.52128   0.31480   0.25000 
H          H       0.68520   0.20648   0.25000 
H          H       0.20648   0.52128   0.25000 
H          H       0.47872   0.68520   0.25000 
H          H       0.31480   0.79352   0.25000 
H          H       0.86479   0.49629   0.25000 
H          H       0.50371   0.36850   0.25000 
H          H       0.63150   0.13521   0.25000 
H          H       0.13521   0.50371   0.25000 
H          H       0.49629   0.63150   0.25000 
H          H       0.36850   0.86479   0.25000 
H          H       0.82803   0.37249   0.25000 
H          H       0.62751   0.45554   0.25000 
H          H       0.54446   0.17197   0.25000 
H          H       0.17197   0.62751   0.25000 
H          H       0.37249   0.54446   0.25000 
H          H       0.45554   0.82803   0.25000 
H          H       0.75729   0.35549   0.25000 
H          H       0.64451   0.40180   0.25000 
H          H       0.59820   0.24271   0.25000 
H          H       0.24271   0.64451   0.25000 
H          H       0.35549   0.59820   0.25000 
H          H       0.40180   0.75729   0.25000 
H          H       0.89796   0.41954   0.25000 
H          H       0.58046   0.47842   0.25000 
H          H       0.52158   0.10204   0.25000 
H          H       0.10204   0.58046   0.25000 
H          H       0.41954   0.52158   0.25000 
H          H       0.47842   0.89796   0.25000 
H          H       0.98041   0.55273   0.25000 
H          H       0.44727   0.42768   0.25000 
H          H       0.57232   0.01959   0.25000 
H          H       0.01959   0.44727   0.25000 
H          H       0.55273   0.57232   0.25000 
H          H       0.42768   0.98041   0.25000 
H          H       0.05213   0.57217   0.25000 
H          H       0.42783   0.47996   0.25000 
H          H       0.52004   0.94787   0.25000 
H          H       0.94787   0.42783   0.25000 
H          H       0.57217   0.52004   0.25000 
H          H       0.47996   0.05213   0.25000 
N          N       0.63440   0.29756   0.75000 
N          N       0.70244   0.33684   0.75000 
N          N       0.66316   0.36560   0.75000 
N          N       0.36560   0.70244   0.75000 
N          N       0.29756   0.66316   0.75000 
N          N       0.33684   0.63440   0.75000 
C          C       0.67075   0.30005   0.75000 
C          C       0.69995   0.37070   0.75000 
C          C       0.62930   0.32925   0.75000 
C          C       0.32925   0.69995   0.75000 
C          C       0.30005   0.62930   0.75000 
C          C       0.37070   0.67075   0.75000 
O          O       0.59288   0.32527   0.75000 
O          O       0.67473   0.26761   0.75000 
O          O       0.73239   0.40712   0.75000 
O          O       0.40712   0.67473   0.75000 
O          O       0.32527   0.73239   0.75000 
O          O       0.26761   0.59288   0.75000 
C          C       0.58548   0.35678   0.75000 
C          C       0.64322   0.22870   0.75000 
C          C       0.77130   0.41452   0.75000 
C          C       0.41452   0.64322   0.75000 
C          C       0.35678   0.77130   0.75000 
C          C       0.22870   0.58548   0.75000 
C          C       0.80284   0.45445   0.75000 
C          C       0.54555   0.34839   0.75000 
C          C       0.65161   0.19716   0.75000 
C          C       0.19716   0.54555   0.75000 
C          C       0.45445   0.65161   0.75000 
C          C       0.34839   0.80284   0.75000 
C          C       0.84214   0.46418   0.75000 
C          C       0.53582   0.37796   0.75000 
C          C       0.62204   0.15786   0.75000 
C          C       0.15786   0.53582   0.75000 
C          C       0.46418   0.62204   0.75000 
C          C       0.37796   0.84214   0.75000 
C          C       0.85198   0.43544   0.75000 
C          C       0.56456   0.41654   0.75000 
C          C       0.58346   0.14802   0.75000 
C          C       0.14802   0.56456   0.75000 
C          C       0.43544   0.58346   0.75000 
C          C       0.41654   0.85198   0.75000 
C          C       0.82230   0.39716   0.75000 
C          C       0.60284   0.42514   0.75000 
C          C       0.57486   0.17770   0.75000 
C          C       0.17770   0.60284   0.75000 
C          C       0.39716   0.57486   0.75000 
C          C       0.42514   0.82230   0.75000 
C          C       0.78304   0.38758   0.75000 
C          C       0.61242   0.39546   0.75000 
C          C       0.60454   0.21696   0.75000 
C          C       0.21696   0.61242   0.75000 
C          C       0.38758   0.60454   0.75000 
C          C       0.39546   0.78304   0.75000 
C          C       0.89289   0.44466   0.75000 
C          C       0.55534   0.44823   0.75000 
C          C       0.55177   0.10711   0.75000 
C          C       0.10711   0.55534   0.75000 
C          C       0.44466   0.55177   0.75000 
C          C       0.44823   0.89289   0.75000 
N          N       0.92144   0.47989   0.75000 
N          N       0.52011   0.44155   0.75000 
N          N       0.55845   0.07856   0.75000 
N          N       0.07856   0.52011   0.75000 
N          N       0.47989   0.55845   0.75000 
N          N       0.44155   0.92144   0.75000 
C          C       0.96173   0.49001   0.75000 
C          C       0.50999   0.47172   0.75000 
C          C       0.52828   0.03827   0.75000 
C          C       0.03827   0.50999   0.75000 
C          C       0.49001   0.52828   0.75000 
C          C       0.47172   0.96173   0.75000 
C          C       0.99054   0.52905   0.75000 
C          C       0.47095   0.46149   0.75000 
C          C       0.53851   0.00946   0.75000 
C          C       0.00946   0.47095   0.75000 
C          C       0.52905   0.53851   0.75000 
C          C       0.46149   0.99054   0.75000 
C          C       0.03011   0.53982   0.75000 
C          C       0.46018   0.49029   0.75000 
C          C       0.50971   0.96989   0.75000 
C          C       0.96989   0.46018   0.75000 
C          C       0.53982   0.50971   0.75000 
C          C       0.49029   0.03011   0.75000 
H          H       0.79352   0.47872   0.75000 
H          H       0.52128   0.31480   0.75000 
H          H       0.68520   0.20648   0.75000 
H          H       0.20648   0.52128   0.75000 
H          H       0.47872   0.68520   0.75000 
H          H       0.31480   0.79352   0.75000 
H          H       0.86479   0.49629   0.75000 
H          H       0.50371   0.36850   0.75000 
H          H       0.63150   0.13521   0.75000 
H          H       0.13521   0.50371   0.75000 
H          H       0.49629   0.63150   0.75000 
H          H       0.36850   0.86479   0.75000 
H          H       0.82803   0.37249   0.75000 
H          H       0.62751   0.45554   0.75000 
H          H       0.54446   0.17197   0.75000 
H          H       0.17197   0.62751   0.75000 
H          H       0.37249   0.54446   0.75000 
H          H       0.45554   0.82803   0.75000 
H          H       0.75729   0.35549   0.75000 
H          H       0.64451   0.40180   0.75000 
H          H       0.59820   0.24271   0.75000 
H          H       0.24271   0.64451   0.75000 
H          H       0.35549   0.59820   0.75000 
H          H       0.40180   0.75729   0.75000 
H          H       0.89796   0.41954   0.75000 
H          H       0.58046   0.47842   0.75000 
H          H       0.52158   0.10204   0.75000 
H          H       0.10204   0.58046   0.75000 
H          H       0.41954   0.52158   0.75000 
H          H       0.47842   0.89796   0.75000 
H          H       0.98041   0.55273   0.75000 
H          H       0.44727   0.42768   0.75000 
H          H       0.57232   0.01959   0.75000 
H          H       0.01959   0.44727   0.75000 
H          H       0.55273   0.57232   0.75000 
H          H       0.42768   0.98041   0.75000 
H          H       0.05213   0.57217   0.75000 
H          H       0.42783   0.47996   0.75000 
H          H       0.52004   0.94787   0.75000 
H          H       0.94787   0.42783   0.75000 
H          H       0.57217   0.52004   0.75000 
H          H       0.47996   0.05213   0.75000 
