data_crystal
 
_cell_length_a    45.78900
_cell_length_b    45.78900
_cell_length_c    7.54200
_cell_angle_alpha 90.00000
_cell_angle_beta  90.00000
_cell_angle_gamma 120.00000
 
_space_group_name_Hall 'P 1'
_space_group_name_H-M_alt  'P 1'
 
loop_
_symmetry_equiv_pos_as_xyz
 'x,y,z' 
 
loop_
_atom_site_label
_atom_site_type_symbol
_atom_site_fract_x
_atom_site_fract_y
_atom_site_fract_z
O          O       0.40324   0.68761   0.25000 
O          O       0.31239   0.71563   0.25000 
O          O       0.28437   0.59676   0.25000 
O          O       0.59676   0.31239   0.25000 
O          O       0.68761   0.28437   0.25000 
O          O       0.71563   0.40324   0.25000 
C          C       0.55637   0.37740   0.25000 
C          C       0.62260   0.17897   0.25000 
C          C       0.82103   0.44363   0.25000 
C          C       0.44363   0.62260   0.25000 
C          C       0.37740   0.82103   0.25000 
C          C       0.17897   0.55637   0.25000 
C          C       0.59246   0.39097   0.25000 
C          C       0.60903   0.20149   0.25000 
C          C       0.79851   0.40754   0.25000 
C          C       0.40754   0.60903   0.25000 
C          C       0.39097   0.79851   0.25000 
C          C       0.20149   0.59246   0.25000 
C          C       0.60602   0.36854   0.25000 
C          C       0.63146   0.23748   0.25000 
C          C       0.76252   0.39398   0.25000 
C          C       0.39398   0.63146   0.25000 
C          C       0.36854   0.76252   0.25000 
C          C       0.23748   0.60602   0.25000 
C          C       0.54735   0.31885   0.25000 
C          C       0.68115   0.22850   0.25000 
C          C       0.77150   0.45265   0.25000 
C          C       0.45265   0.68115   0.25000 
C          C       0.31885   0.77150   0.25000 
C          C       0.22850   0.54735   0.25000 
C          C       0.53382   0.34130   0.25000 
C          C       0.65870   0.19252   0.25000 
C          C       0.80748   0.46618   0.25000 
C          C       0.46618   0.65870   0.25000 
C          C       0.34130   0.80748   0.25000 
C          C       0.19252   0.53382   0.25000 
C          C       0.51786   0.44616   0.25000 
C          C       0.55384   0.07170   0.25000 
C          C       0.92830   0.48214   0.25000 
C          C       0.48214   0.55384   0.25000 
C          C       0.44616   0.92830   0.25000 
C          C       0.07170   0.51786   0.25000 
N          N       0.55299   0.45777   0.25000 
N          N       0.54223   0.09522   0.25000 
N          N       0.90478   0.44701   0.25000 
N          N       0.44701   0.54223   0.25000 
N          N       0.45777   0.90478   0.25000 
N          N       0.09522   0.55299   0.25000 
C          C       0.54288   0.39996   0.25000 
C          C       0.60004   0.14292   0.25000 
C          C       0.85708   0.45712   0.25000 
C          C       0.45712   0.60004   0.25000 
C          C       0.39996   0.85708   0.25000 
C          C       0.14292   0.54288   0.25000 
O          O       0.49605   0.57844   0.25000 
O          O       0.42156   0.91761   0.25000 
O          O       0.08239   0.50395   0.25000 
O          O       0.50395   0.42156   0.25000 
O          O       0.57844   0.08239   0.25000 
O          O       0.91761   0.49605   0.25000 
N          N       0.29848   0.65630   0.25000 
N          N       0.34370   0.64218   0.25000 
N          N       0.35782   0.70152   0.25000 
N          N       0.70152   0.34370   0.25000 
N          N       0.65630   0.35782   0.25000 
N          N       0.64218   0.29848   0.25000 
C          C       0.30882   0.63181   0.25000 
C          C       0.36819   0.67701   0.25000 
C          C       0.32299   0.69118   0.25000 
C          C       0.69118   0.36819   0.25000 
C          C       0.63181   0.32299   0.25000 
C          C       0.67701   0.30882   0.25000 
C          C       0.41393   0.66322   0.25000 
C          C       0.33678   0.75071   0.25000 
C          C       0.24929   0.58607   0.25000 
C          C       0.58607   0.33678   0.25000 
C          C       0.66322   0.24929   0.25000 
C          C       0.75071   0.41393   0.25000 
N          N       0.56493   0.43507   0.25000 
N          N       0.56493   0.12986   0.25000 
N          N       0.87014   0.43507   0.25000 
N          N       0.43507   0.56493   0.25000 
N          N       0.43507   0.87014   0.25000 
N          N       0.12986   0.56493   0.25000 
C          C       0.51896   0.53040   0.25000 
C          C       0.46960   0.98856   0.25000 
C          C       0.01144   0.48104   0.25000 
C          C       0.48104   0.46960   0.25000 
C          C       0.53040   0.01144   0.25000 
C          C       0.98856   0.51896   0.25000 
C          C       0.53040   0.50610   0.25000 
C          C       0.49390   0.02430   0.25000 
C          C       0.97570   0.46960   0.25000 
C          C       0.46960   0.49390   0.25000 
C          C       0.50610   0.97570   0.25000 
C          C       0.02430   0.53040   0.25000 
C          C       0.50623   0.47036   0.25000 
C          C       0.52964   0.03587   0.25000 
C          C       0.96413   0.49377   0.25000 
C          C       0.49377   0.52964   0.25000 
C          C       0.47036   0.96413   0.25000 
C          C       0.03587   0.50623   0.25000 
H          H       0.60917   0.41769   0.25000 
H          H       0.58231   0.19148   0.25000 
H          H       0.80852   0.39083   0.25000 
H          H       0.39083   0.58231   0.25000 
H          H       0.41769   0.80852   0.25000 
H          H       0.19148   0.60917   0.25000 
H          H       0.63277   0.37859   0.25000 
H          H       0.62141   0.25418   0.25000 
H          H       0.74582   0.36723   0.25000 
H          H       0.36723   0.62141   0.25000 
H          H       0.37859   0.74582   0.25000 
H          H       0.25418   0.63277   0.25000 
H          H       0.53277   0.29185   0.25000 
H          H       0.70815   0.24092   0.25000 
H          H       0.75908   0.46723   0.25000 
H          H       0.46723   0.70815   0.25000 
H          H       0.29185   0.75908   0.25000 
H          H       0.24092   0.53277   0.25000 
H          H       0.50710   0.33118   0.25000 
H          H       0.66882   0.17592   0.25000 
H          H       0.82408   0.49290   0.25000 
H          H       0.49290   0.66882   0.25000 
H          H       0.33118   0.82408   0.25000 
H          H       0.17592   0.50710   0.25000 
H          H       0.57019   0.48355   0.25000 
H          H       0.51645   0.08664   0.25000 
H          H       0.91336   0.42981   0.25000 
H          H       0.42981   0.51645   0.25000 
H          H       0.48355   0.91336   0.25000 
H          H       0.08664   0.57019   0.25000 
H          H       0.51614   0.38996   0.25000 
H          H       0.61004   0.12618   0.25000 
H          H       0.87382   0.48386   0.25000 
H          H       0.48386   0.61004   0.25000 
H          H       0.38996   0.87382   0.25000 
H          H       0.12618   0.51614   0.25000 
H          H       0.53696   0.55687   0.25000 
H          H       0.44313   0.98009   0.25000 
H          H       0.01991   0.46304   0.25000 
H          H       0.46304   0.44313   0.25000 
H          H       0.55687   0.01991   0.25000 
H          H       0.98009   0.53696   0.25000 
H          H       0.55687   0.51457   0.25000 
H          H       0.48543   0.04230   0.25000 
H          H       0.95770   0.44313   0.25000 
H          H       0.44313   0.48543   0.25000 
H          H       0.51457   0.95770   0.25000 
H          H       0.04230   0.55687   0.25000 
O          O       0.40324   0.68761   0.75000 
O          O       0.31239   0.71563   0.75000 
O          O       0.28437   0.59676   0.75000 
O          O       0.59676   0.31239   0.75000 
O          O       0.68761   0.28437   0.75000 
O          O       0.71563   0.40324   0.75000 
C          C       0.55637   0.37740   0.75000 
C          C       0.62260   0.17897   0.75000 
C          C       0.82103   0.44363   0.75000 
C          C       0.44363   0.62260   0.75000 
C          C       0.37740   0.82103   0.75000 
C          C       0.17897   0.55637   0.75000 
C          C       0.59246   0.39097   0.75000 
C          C       0.60903   0.20149   0.75000 
C          C       0.79851   0.40754   0.75000 
C          C       0.40754   0.60903   0.75000 
C          C       0.39097   0.79851   0.75000 
C          C       0.20149   0.59246   0.75000 
C          C       0.60602   0.36854   0.75000 
C          C       0.63146   0.23748   0.75000 
C          C       0.76252   0.39398   0.75000 
C          C       0.39398   0.63146   0.75000 
C          C       0.36854   0.76252   0.75000 
C          C       0.23748   0.60602   0.75000 
C          C       0.54735   0.31885   0.75000 
C          C       0.68115   0.22850   0.75000 
C          C       0.77150   0.45265   0.75000 
C          C       0.45265   0.68115   0.75000 
C          C       0.31885   0.77150   0.75000 
C          C       0.22850   0.54735   0.75000 
C          C       0.53382   0.34130   0.75000 
C          C       0.65870   0.19252   0.75000 
C          C       0.80748   0.46618   0.75000 
C          C       0.46618   0.65870   0.75000 
C          C       0.34130   0.80748   0.75000 
C          C       0.19252   0.53382   0.75000 
C          C       0.51786   0.44616   0.75000 
C          C       0.55384   0.07170   0.75000 
C          C       0.92830   0.48214   0.75000 
C          C       0.48214   0.55384   0.75000 
C          C       0.44616   0.92830   0.75000 
C          C       0.07170   0.51786   0.75000 
N          N       0.55299   0.45777   0.75000 
N          N       0.54223   0.09522   0.75000 
N          N       0.90478   0.44701   0.75000 
N          N       0.44701   0.54223   0.75000 
N          N       0.45777   0.90478   0.75000 
N          N       0.09522   0.55299   0.75000 
C          C       0.54288   0.39996   0.75000 
C          C       0.60004   0.14292   0.75000 
C          C       0.85708   0.45712   0.75000 
C          C       0.45712   0.60004   0.75000 
C          C       0.39996   0.85708   0.75000 
C          C       0.14292   0.54288   0.75000 
O          O       0.49605   0.57844   0.75000 
O          O       0.42156   0.91761   0.75000 
O          O       0.08239   0.50395   0.75000 
O          O       0.50395   0.42156   0.75000 
O          O       0.57844   0.08239   0.75000 
O          O       0.91761   0.49605   0.75000 
N          N       0.29848   0.65630   0.75000 
N          N       0.34370   0.64218   0.75000 
N          N       0.35782   0.70152   0.75000 
N          N       0.70152   0.34370   0.75000 
N          N       0.65630   0.35782   0.75000 
N          N       0.64218   0.29848   0.75000 
C          C       0.30882   0.63181   0.75000 
C          C       0.36819   0.67701   0.75000 
C          C       0.32299   0.69118   0.75000 
C          C       0.69118   0.36819   0.75000 
C          C       0.63181   0.32299   0.75000 
C          C       0.67701   0.30882   0.75000 
C          C       0.41393   0.66322   0.75000 
C          C       0.33678   0.75071   0.75000 
C          C       0.24929   0.58607   0.75000 
C          C       0.58607   0.33678   0.75000 
C          C       0.66322   0.24929   0.75000 
C          C       0.75071   0.41393   0.75000 
N          N       0.56493   0.43507   0.75000 
N          N       0.56493   0.12986   0.75000 
N          N       0.87014   0.43507   0.75000 
N          N       0.43507   0.56493   0.75000 
N          N       0.43507   0.87014   0.75000 
N          N       0.12986   0.56493   0.75000 
C          C       0.51896   0.53040   0.75000 
C          C       0.46960   0.98856   0.75000 
C          C       0.01144   0.48104   0.75000 
C          C       0.48104   0.46960   0.75000 
C          C       0.53040   0.01144   0.75000 
C          C       0.98856   0.51896   0.75000 
C          C       0.53040   0.50610   0.75000 
C          C       0.49390   0.02430   0.75000 
C          C       0.97570   0.46960   0.75000 
C          C       0.46960   0.49390   0.75000 
C          C       0.50610   0.97570   0.75000 
C          C       0.02430   0.53040   0.75000 
C          C       0.50623   0.47036   0.75000 
C          C       0.52964   0.03587   0.75000 
C          C       0.96413   0.49377   0.75000 
C          C       0.49377   0.52964   0.75000 
C          C       0.47036   0.96413   0.75000 
C          C       0.03587   0.50623   0.75000 
H          H       0.60917   0.41769   0.75000 
H          H       0.58231   0.19148   0.75000 
H          H       0.80852   0.39083   0.75000 
H          H       0.39083   0.58231   0.75000 
H          H       0.41769   0.80852   0.75000 
H          H       0.19148   0.60917   0.75000 
H          H       0.63277   0.37859   0.75000 
H          H       0.62141   0.25418   0.75000 
H          H       0.74582   0.36723   0.75000 
H          H       0.36723   0.62141   0.75000 
H          H       0.37859   0.74582   0.75000 
H          H       0.25418   0.63277   0.75000 
H          H       0.53277   0.29185   0.75000 
H          H       0.70815   0.24092   0.75000 
H          H       0.75908   0.46723   0.75000 
H          H       0.46723   0.70815   0.75000 
H          H       0.29185   0.75908   0.75000 
H          H       0.24092   0.53277   0.75000 
H          H       0.50710   0.33118   0.75000 
H          H       0.66882   0.17592   0.75000 
H          H       0.82408   0.49290   0.75000 
H          H       0.49290   0.66882   0.75000 
H          H       0.33118   0.82408   0.75000 
H          H       0.17592   0.50710   0.75000 
H          H       0.57019   0.48355   0.75000 
H          H       0.51645   0.08664   0.75000 
H          H       0.91336   0.42981   0.75000 
H          H       0.42981   0.51645   0.75000 
H          H       0.48355   0.91336   0.75000 
H          H       0.08664   0.57019   0.75000 
H          H       0.51614   0.38996   0.75000 
H          H       0.61004   0.12618   0.75000 
H          H       0.87382   0.48386   0.75000 
H          H       0.48386   0.61004   0.75000 
H          H       0.38996   0.87382   0.75000 
H          H       0.12618   0.51614   0.75000 
H          H       0.53696   0.55687   0.75000 
H          H       0.44313   0.98009   0.75000 
H          H       0.01991   0.46304   0.75000 
H          H       0.46304   0.44313   0.75000 
H          H       0.55687   0.01991   0.75000 
H          H       0.98009   0.53696   0.75000 
H          H       0.55687   0.51457   0.75000 
H          H       0.48543   0.04230   0.75000 
H          H       0.95770   0.44313   0.75000 
H          H       0.44313   0.48543   0.75000 
H          H       0.51457   0.95770   0.75000 
H          H       0.04230   0.55687   0.75000 
