data_crystal

_cell_length_a    40.19750
_cell_length_b    24.37130
_cell_length_c    15.30120
_cell_angle_alpha 90.00000
_cell_angle_beta  104.46400
_cell_angle_gamma 90.00000

_space_group_name_Hall 'P 1'
_space_group_name_H-M_alt  'P 1'

loop_
_symmetry_equiv_pos_as_xyz
'x,y,z' 

loop_
_atom_site_label
_atom_site_type_symbol
_atom_site_fract_x
_atom_site_fract_y
_atom_site_fract_z
C          C       0.19891   0.39148   0.87944 
C          C       0.80109   0.39148   0.12056 
C          C       0.69891   0.89148   0.87944 
C          C       0.30109   0.89148   0.12056 
C          C       0.19761   0.34127   0.83472 
C          C       0.80239   0.34127   0.16528 
C          C       0.69761   0.84127   0.83472 
C          C       0.30239   0.84127   0.16528 
C          C       0.22386   0.32603   0.79301 
C          C       0.77614   0.32603   0.20699 
C          C       0.72386   0.82603   0.79301 
C          C       0.27614   0.82603   0.20699 
C          C       0.25176   0.36289   0.79689 
C          C       0.74824   0.36289   0.20311 
C          C       0.75176   0.86289   0.79689 
C          C       0.24824   0.86289   0.20311 
C          C       0.25262   0.41310   0.84332 
C          C       0.74738   0.41310   0.15668 
C          C       0.75262   0.91310   0.84332 
C          C       0.24738   0.91310   0.15668 
C          C       0.22633   0.42717   0.88373 
C          C       0.77367   0.42717   0.11627 
C          C       0.72633   0.92717   0.88373 
C          C       0.27367   0.92717   0.11627 
C          C       0.27813   0.34855   0.75436 
C          C       0.72187   0.34855   0.24564 
C          C       0.77813   0.84855   0.75436 
C          C       0.22187   0.84855   0.24564 
C          C       0.27710   0.29741   0.71122 
C          C       0.72290   0.29741   0.28878 
C          C       0.77710   0.79741   0.71122 
C          C       0.22290   0.79741   0.28878 
C          C       0.25048   0.26068   0.71095 
C          C       0.74952   0.26068   0.28905 
C          C       0.75048   0.76068   0.71095 
C          C       0.24952   0.76068   0.28905 
C          C       0.22353   0.27458   0.74929 
C          C       0.77647   0.27458   0.25071 
C          C       0.72353   0.77458   0.74929 
C          C       0.27647   0.77458   0.25071 
O          O       0.30377   0.28230   0.67194 
O          O       0.69623   0.28230   0.32806 
O          O       0.80377   0.78230   0.67194 
O          O       0.19623   0.78230   0.32806 
C          C       0.29401   0.27574   0.57598 
C          C       0.70599   0.27574   0.42402 
C          C       0.79401   0.77574   0.57598 
C          C       0.20599   0.77574   0.42402 
C          C       0.29972   0.21650   0.55173 
C          C       0.70028   0.21650   0.44827 
C          C       0.79972   0.71650   0.55173 
C          C       0.20028   0.71650   0.44827 
Cl         Cl      0.16602   0.40960   0.93080 
Cl         Cl      0.83398   0.40960   0.06920 
Cl         Cl      0.66602   0.90960   0.93080 
Cl         Cl      0.33398   0.90960   0.06920 
C          C       0.19645   0.23305   0.74380 
C          C       0.80355   0.23305   0.25620 
C          C       0.69645   0.73305   0.74380 
C          C       0.30355   0.73305   0.25620 
N          N       0.16442   0.24510   0.70877 
N          N       0.83558   0.24510   0.29123 
N          N       0.66442   0.74510   0.70877 
N          N       0.33558   0.74510   0.29123 
C          C       0.13631   0.20727   0.69811 
C          C       0.86369   0.20727   0.30189 
C          C       0.63631   0.70727   0.69811 
C          C       0.36369   0.70727   0.30189 
C          C       0.10544   0.21938   0.63520 
C          C       0.89456   0.21938   0.36480 
C          C       0.60544   0.71938   0.63520 
C          C       0.39456   0.71938   0.36480 
C          C       0.07678   0.18541   0.62664 
C          C       0.92322   0.18541   0.37336 
C          C       0.57678   0.68541   0.62664 
C          C       0.42322   0.68541   0.37336 
C          C       0.07851   0.13879   0.68144 
C          C       0.92149   0.13879   0.31856 
C          C       0.57851   0.63879   0.68144 
C          C       0.42149   0.63879   0.31856 
C          C       0.10942   0.12689   0.74504 
C          C       0.89058   0.12689   0.25496 
C          C       0.60942   0.62689   0.74504 
C          C       0.39058   0.62689   0.25496 
C          C       0.13817   0.16038   0.75274 
C          C       0.86183   0.16038   0.24726 
C          C       0.63817   0.66038   0.75274 
C          C       0.36183   0.66038   0.24726 
C          C       0.04707   0.10592   0.67857 
C          C       0.95293   0.10592   0.32143 
C          C       0.54707   0.60592   0.67857 
C          C       0.45293   0.60592   0.32143 
C          C       0.04736   0.05012   0.68316 
C          C       0.95264   0.05012   0.31684 
C          C       0.54736   0.55012   0.68316 
C          C       0.45264   0.55012   0.31684 
C          C       0.07640   0.01649   0.66964 
C          C       0.92360   0.01649   0.33036 
C          C       0.57640   0.51649   0.66964 
C          C       0.42360   0.51649   0.33036 
C          C       0.01842   0.02079   0.70628 
C          C       0.98158   0.02079   0.29372 
C          C       0.51842   0.52079   0.70628 
C          C       0.48158   0.52079   0.29372 
C          C       0.01516   0.13646   0.67886 
C          C       0.98484   0.13646   0.32114 
C          C       0.51516   0.63646   0.67886 
C          C       0.48484   0.63646   0.32114 
C          C       0.09000   0.97489   0.73156 
C          C       0.91000   0.97489   0.26844 
C          C       0.59000   0.47489   0.73156 
C          C       0.41000   0.47489   0.26844 
C          C       0.11782   0.94362   0.72127 
C          C       0.88218   0.94362   0.27873 
C          C       0.61782   0.44362   0.72127 
C          C       0.38218   0.44362   0.27873 
C          C       0.13230   0.95289   0.64776 
C          C       0.86770   0.95289   0.35224 
C          C       0.63230   0.45289   0.64776 
C          C       0.36770   0.45289   0.35224 
C          C       0.11866   0.99437   0.58575 
C          C       0.88134   0.99437   0.41425 
C          C       0.61866   0.49437   0.58575 
C          C       0.38134   0.49437   0.41425 
C          C       0.09065   0.02555   0.59578 
C          C       0.90935   0.02555   0.40422 
C          C       0.59065   0.52555   0.59578 
C          C       0.40935   0.52555   0.40422 
C          C       0.99536   0.99024   0.64052 
C          C       0.00464   0.99024   0.35948 
C          C       0.49536   0.49024   0.64052 
C          C       0.50464   0.49024   0.35948 
C          C       0.96539   0.96939   0.65836 
C          C       0.03461   0.96939   0.34164 
C          C       0.46539   0.46939   0.65836 
C          C       0.53461   0.46939   0.34164 
C          C       0.95856   0.97801   0.74326 
C          C       0.04144   0.97801   0.25674 
C          C       0.45856   0.47801   0.74326 
C          C       0.54144   0.47801   0.25674 
C          C       0.98286   0.00521   0.81088 
C          C       0.01714   0.00521   0.18912 
C          C       0.48286   0.50521   0.81088 
C          C       0.51714   0.50521   0.18912 
C          C       0.01243   0.02711   0.79225 
C          C       0.98757   0.02711   0.20775 
C          C       0.51243   0.52711   0.79225 
C          C       0.48757   0.52711   0.20775 
C          C       0.98494   0.12648   0.61172 
C          C       0.01506   0.12648   0.38828 
C          C       0.48494   0.62648   0.61172 
C          C       0.51506   0.62648   0.38828 
C          C       0.95414   0.15067   0.61707 
C          C       0.04586   0.15067   0.38293 
C          C       0.45414   0.65067   0.61707 
C          C       0.54586   0.65067   0.38293 
C          C       0.95292   0.18512   0.68928 
C          C       0.04708   0.18512   0.31072 
C          C       0.45292   0.68512   0.68928 
C          C       0.54708   0.68512   0.31072 
C          C       0.98345   0.19715   0.75476 
C          C       0.01655   0.19715   0.24524 
C          C       0.48345   0.69715   0.75476 
C          C       0.51655   0.69715   0.24524 
C          C       0.01439   0.17290   0.74926 
C          C       0.98561   0.17290   0.25074 
C          C       0.51439   0.67290   0.74926 
C          C       0.48561   0.67290   0.25074 
C          C       0.86189   0.25424   0.98037 
C          C       0.13811   0.25424   0.01963 
C          C       0.36189   0.75424   0.98037 
C          C       0.63811   0.75424   0.01963 
C          C       0.87799   0.24702   0.91023 
C          C       0.12201   0.24702   0.08977 
C          C       0.37799   0.74702   0.91023 
C          C       0.62201   0.74702   0.08977 
C          C       0.86075   0.25969   0.82013 
C          C       0.13925   0.25969   0.17987 
C          C       0.36075   0.75969   0.82013 
C          C       0.63925   0.75969   0.17987 
C          C       0.82625   0.27913   0.80187 
C          C       0.17375   0.27913   0.19813 
C          C       0.32625   0.77913   0.80187 
C          C       0.67375   0.77913   0.19813 
C          C       0.81054   0.28570   0.87407 
C          C       0.18946   0.28570   0.12593 
C          C       0.31054   0.78570   0.87407 
C          C       0.68946   0.78570   0.12593 
C          C       0.82817   0.27309   0.96214 
C          C       0.17183   0.27309   0.03786 
C          C       0.32817   0.77309   0.96214 
C          C       0.67183   0.77309   0.03786 
C          C       0.80821   0.29177   0.71206 
C          C       0.19179   0.29177   0.28794 
C          C       0.30821   0.79177   0.71206 
C          C       0.69179   0.79177   0.28794 
C          C       0.82475   0.28765   0.64181 
C          C       0.17525   0.28765   0.35819 
C          C       0.32475   0.78765   0.64181 
C          C       0.67525   0.78765   0.35819 
C          C       0.85808   0.26626   0.65968 
C          C       0.14192   0.26626   0.34032 
C          C       0.35808   0.76626   0.65968 
C          C       0.64192   0.76626   0.34032 
C          C       0.87651   0.25259   0.74754 
C          C       0.12349   0.25259   0.25246 
C          C       0.37651   0.75259   0.74754 
C          C       0.62349   0.75259   0.25246 
O          O       0.80670   0.30334   0.55416 
O          O       0.19330   0.30334   0.44584 
O          O       0.30670   0.80334   0.55416 
O          O       0.69330   0.80334   0.44584 
C          C       0.82643   0.32351   0.49505 
C          C       0.17357   0.32351   0.50495 
C          C       0.32643   0.82351   0.49505 
C          C       0.67357   0.82351   0.50495 
C          C       0.80617   0.36792   0.43539 
C          C       0.19383   0.36792   0.56461 
C          C       0.30617   0.86792   0.43539 
C          C       0.69383   0.86792   0.56461 
Cl         Cl      0.88441   0.24040   0.09183 
Cl         Cl      0.11559   0.24040   0.90817 
Cl         Cl      0.38441   0.74040   0.09183 
Cl         Cl      0.61559   0.74040   0.90817 
C          C       0.91196   0.23121   0.75951 
C          C       0.08804   0.23121   0.24049 
C          C       0.41196   0.73121   0.75951 
C          C       0.58804   0.73121   0.24049 
N          N       0.92020   0.20729   0.69196 
N          N       0.07980   0.20729   0.30804 
N          N       0.42020   0.70729   0.69196 
N          N       0.57980   0.70729   0.30804 
C          C       0.79620   0.02120   0.57395 
C          C       0.20380   0.02120   0.42605 
C          C       0.29620   0.52120   0.57395 
C          C       0.70380   0.52120   0.42605 
C          C       0.82890   0.00357   0.61990 
C          C       0.17110   0.00357   0.38010 
C          C       0.32890   0.50357   0.61990 
C          C       0.67110   0.50357   0.38010 
C          C       0.83324   0.95794   0.67886 
C          C       0.16676   0.95794   0.32114 
C          C       0.33324   0.45794   0.67886 
C          C       0.66676   0.45794   0.32114 
C          C       0.80362   0.93086   0.69252 
C          C       0.19638   0.93086   0.30748 
C          C       0.30362   0.43086   0.69252 
C          C       0.69638   0.43086   0.30748 
C          C       0.77086   0.94961   0.64513 
C          C       0.22914   0.94961   0.35487 
C          C       0.27086   0.44961   0.64513 
C          C       0.72914   0.44961   0.35487 
C          C       0.76727   0.99416   0.58645 
C          C       0.23273   0.99416   0.41355 
C          C       0.26727   0.49416   0.58645 
C          C       0.73273   0.49416   0.41355 
C          C       0.80745   0.88569   0.75276 
C          C       0.19255   0.88569   0.24724 
C          C       0.30745   0.38569   0.75276 
C          C       0.69255   0.38569   0.24724 
C          C       0.84024   0.87068   0.80466 
C          C       0.15976   0.87068   0.19534 
C          C       0.34024   0.37068   0.80466 
C          C       0.65976   0.37068   0.19534 
C          C       0.86936   0.89759   0.79007 
C          C       0.13064   0.89759   0.20993 
C          C       0.36936   0.39759   0.79007 
C          C       0.63064   0.39759   0.20993 
C          C       0.86627   0.93918   0.72512 
C          C       0.13373   0.93918   0.27488 
C          C       0.36627   0.43918   0.72512 
C          C       0.63373   0.43918   0.27488 
O          O       0.84215   0.82732   0.86707 
O          O       0.15785   0.82732   0.13293 
O          O       0.34215   0.32732   0.86707 
O          O       0.65785   0.32732   0.13293 
C          C       0.87490   0.81111   0.92156 
C          C       0.12510   0.81111   0.07844 
C          C       0.37490   0.31111   0.92156 
C          C       0.62510   0.31111   0.07844 
C          C       0.86998   0.76555   0.98500 
C          C       0.13002   0.76555   0.01500 
C          C       0.36998   0.26555   0.98500 
C          C       0.63002   0.26555   0.01500 
Cl         Cl      0.79150   0.07827   0.50184 
Cl         Cl      0.20850   0.07827   0.49816 
Cl         Cl      0.29150   0.57827   0.50184 
Cl         Cl      0.70850   0.57827   0.49816 
C          C       0.89777   0.95970   0.70242 
C          C       0.10223   0.95970   0.29758 
C          C       0.39777   0.45970   0.70242 
C          C       0.60223   0.45970   0.29758 
N          N       0.92709   0.96016   0.76213 
N          N       0.07291   0.96016   0.23787 
N          N       0.42709   0.46016   0.76213 
N          N       0.57291   0.46016   0.23787 
C          C       0.19156   0.69896   0.69853 
C          C       0.80844   0.69896   0.30147 
C          C       0.69156   0.19896   0.69853 
C          C       0.30844   0.19896   0.30147 
C          C       0.18427   0.75468   0.68312 
C          C       0.81573   0.75468   0.31688 
C          C       0.68427   0.25468   0.68312 
C          C       0.31573   0.25468   0.31688 
C          C       0.21064   0.79263   0.68094 
C          C       0.78936   0.79263   0.31906 
C          C       0.71064   0.29263   0.68094 
C          C       0.28936   0.29263   0.31906 
C          C       0.24479   0.77272   0.69231 
C          C       0.75521   0.77272   0.30769 
C          C       0.74479   0.27272   0.69231 
C          C       0.25521   0.27272   0.30769 
C          C       0.25137   0.71605   0.70633 
C          C       0.74863   0.71605   0.29367 
C          C       0.75137   0.21605   0.70633 
C          C       0.24863   0.21605   0.29367 
C          C       0.22496   0.67973   0.70983 
C          C       0.77504   0.67973   0.29017 
C          C       0.72496   0.17973   0.70983 
C          C       0.27504   0.17973   0.29017 
C          C       0.27172   0.80990   0.69016 
C          C       0.72828   0.80990   0.30984 
C          C       0.77172   0.30990   0.69016 
C          C       0.22828   0.30990   0.30984 
C          C       0.26444   0.86564   0.67207 
C          C       0.73556   0.86564   0.32793 
C          C       0.76444   0.36564   0.67207 
C          C       0.23556   0.36564   0.32793 
C          C       0.23070   0.88475   0.65888 
C          C       0.76930   0.88475   0.34112 
C          C       0.73070   0.38475   0.65888 
C          C       0.26930   0.38475   0.34112 
C          C       0.20392   0.84963   0.66691 
C          C       0.79608   0.84963   0.33309 
C          C       0.70392   0.34963   0.66691 
C          C       0.29608   0.34963   0.33309 
O          O       0.29122   0.90133   0.66595 
O          O       0.70878   0.90133   0.33405 
O          O       0.79122   0.40133   0.66595 
O          O       0.20878   0.40133   0.33405 
C          C       0.29480   0.95005   0.71960 
C          C       0.70520   0.95005   0.28040 
C          C       0.79480   0.45005   0.71960 
C          C       0.20520   0.45005   0.28040 
C          C       0.28901   0.00026   0.65874 
C          C       0.71099   0.00026   0.34126 
C          C       0.78901   0.50026   0.65874 
C          C       0.21099   0.50026   0.34126 
Cl         Cl      0.15845   0.65276   0.70294 
Cl         Cl      0.84155   0.65276   0.29706 
Cl         Cl      0.65845   0.15276   0.70294 
Cl         Cl      0.34155   0.15276   0.29706 
C          C       0.17039   0.87433   0.66909 
C          C       0.82961   0.87433   0.33091 
C          C       0.67039   0.37433   0.66909 
C          C       0.32961   0.37433   0.33091 
N          N       0.16206   0.92340   0.63786 
N          N       0.83794   0.92340   0.36214 
N          N       0.66206   0.42340   0.63786 
N          N       0.33794   0.42340   0.36214 
H          H       0.17599   0.31466   0.83365 
H          H       0.82401   0.31466   0.16635 
H          H       0.67599   0.81466   0.83365 
H          H       0.32401   0.81466   0.16635 
H          H       0.27353   0.44185   0.84841 
H          H       0.72647   0.44185   0.15159 
H          H       0.77353   0.94185   0.84841 
H          H       0.22647   0.94185   0.15159 
H          H       0.22732   0.46605   0.91866 
H          H       0.77268   0.46605   0.08134 
H          H       0.72732   0.96605   0.91866 
H          H       0.27268   0.96605   0.08134 
H          H       0.25059   0.22098   0.67924 
H          H       0.74941   0.22098   0.32076 
H          H       0.75059   0.72098   0.67924 
H          H       0.24941   0.72098   0.32076 
H          H       0.31044   0.30290   0.54627 
H          H       0.68956   0.30290   0.45373 
H          H       0.81044   0.80290   0.54627 
H          H       0.18956   0.80290   0.45373 
H          H       0.26678   0.28746   0.54544 
H          H       0.73322   0.28746   0.45456 
H          H       0.76678   0.78746   0.54544 
H          H       0.23322   0.78746   0.45456 
H          H       0.28208   0.18857   0.57612 
H          H       0.71792   0.18857   0.42388 
H          H       0.78208   0.68857   0.57612 
H          H       0.21792   0.68857   0.42388 
H          H       0.32672   0.20405   0.58272 
H          H       0.67328   0.20405   0.41728 
H          H       0.82672   0.70405   0.58272 
H          H       0.17328   0.70405   0.41728 
H          H       0.29454   0.21241   0.47741 
H          H       0.70546   0.21241   0.52259 
H          H       0.79454   0.71241   0.47741 
H          H       0.20546   0.71241   0.52259 
H          H       0.20428   0.19100   0.76004 
H          H       0.79572   0.19100   0.23996 
H          H       0.70428   0.69100   0.76004 
H          H       0.29572   0.69100   0.23996 
H          H       0.10351   0.25556   0.59322 
H          H       0.89649   0.25556   0.40678 
H          H       0.60351   0.75556   0.59322 
H          H       0.39649   0.75556   0.40678 
H          H       0.05306   0.19595   0.57810 
H          H       0.94694   0.19595   0.42190 
H          H       0.55306   0.69595   0.57810 
H          H       0.44694   0.69595   0.42190 
H          H       0.11104   0.09271   0.79104 
H          H       0.88896   0.09271   0.20896 
H          H       0.61104   0.59271   0.79104 
H          H       0.38896   0.59271   0.20896 
H          H       0.16113   0.15094   0.80457 
H          H       0.83887   0.15094   0.19543 
H          H       0.66113   0.65094   0.80457 
H          H       0.33887   0.65094   0.19543 
H          H       0.07968   0.96756   0.78955 
H          H       0.92032   0.96756   0.21045 
H          H       0.57968   0.46756   0.78955 
H          H       0.42032   0.46756   0.21045 
H          H       0.12850   0.91353   0.77254 
H          H       0.87150   0.91353   0.22746 
H          H       0.62850   0.41353   0.77254 
H          H       0.37150   0.41353   0.22746 
H          H       0.12991   0.00259   0.52983 
H          H       0.87009   0.00259   0.47017 
H          H       0.62991   0.50259   0.52983 
H          H       0.37009   0.50259   0.47017 
H          H       0.08023   0.05696   0.54653 
H          H       0.91977   0.05696   0.45347 
H          H       0.58023   0.55696   0.54653 
H          H       0.41977   0.55696   0.45347 
H          H       0.99990   0.98462   0.57446 
H          H       0.00010   0.98462   0.42554 
H          H       0.49990   0.48462   0.57446 
H          H       0.50010   0.48462   0.42554 
H          H       0.94753   0.94693   0.60578 
H          H       0.05247   0.94693   0.39422 
H          H       0.44753   0.44693   0.60578 
H          H       0.55247   0.44693   0.39422 
H          H       0.97814   0.01146   0.87689 
H          H       0.02186   0.01146   0.12311 
H          H       0.47814   0.51146   0.87689 
H          H       0.52186   0.51146   0.12311 
H          H       0.03021   0.05042   0.84390 
H          H       0.96979   0.05042   0.15610 
H          H       0.53021   0.55042   0.84390 
H          H       0.46979   0.55042   0.15610 
H          H       0.98494   0.09865   0.55669 
H          H       0.01506   0.09865   0.44331 
H          H       0.48494   0.59865   0.55669 
H          H       0.51506   0.59865   0.44331 
H          H       0.93088   0.14151   0.56583 
H          H       0.06912   0.14151   0.43417 
H          H       0.43088   0.64151   0.56583 
H          H       0.56912   0.64151   0.43417 
H          H       0.98370   0.22483   0.81011 
H          H       0.01630   0.22483   0.18989 
H          H       0.48370   0.72483   0.81011 
H          H       0.51630   0.72483   0.18989 
H          H       0.03753   0.18121   0.80137 
H          H       0.96247   0.18121   0.19863 
H          H       0.53753   0.68121   0.80137 
H          H       0.46247   0.68121   0.19863 
H          H       0.90387   0.23127   0.92793 
H          H       0.09613   0.23127   0.07207 
H          H       0.40387   0.73127   0.92793 
H          H       0.59613   0.73127   0.07207 
H          H       0.78452   0.30079   0.86334 
H          H       0.21548   0.30079   0.13666 
H          H       0.28452   0.80079   0.86334 
H          H       0.71548   0.80079   0.13666 
H          H       0.81538   0.27801   0.01606 
H          H       0.18462   0.27801   0.98394 
H          H       0.31538   0.77801   0.01606 
H          H       0.68462   0.77801   0.98394 
H          H       0.86992   0.26032   0.60412 
H          H       0.13008   0.26032   0.39588 
H          H       0.36992   0.76032   0.60412 
H          H       0.63008   0.76032   0.39588 
H          H       0.83153   0.28921   0.45241 
H          H       0.16847   0.28921   0.54759 
H          H       0.33153   0.78921   0.45241 
H          H       0.66847   0.78921   0.54759 
H          H       0.85124   0.34200   0.53261 
H          H       0.14876   0.34200   0.46739 
H          H       0.35124   0.84200   0.53261 
H          H       0.64876   0.84200   0.46739 
H          H       0.77988   0.35286   0.40501 
H          H       0.22012   0.35286   0.59499 
H          H       0.27988   0.85286   0.40501 
H          H       0.72012   0.85286   0.59499 
H          H       0.81883   0.37885   0.38120 
H          H       0.18117   0.37885   0.61880 
H          H       0.31883   0.87885   0.38120 
H          H       0.68117   0.87885   0.61880 
H          H       0.80467   0.40499   0.47636 
H          H       0.19533   0.40499   0.52364 
H          H       0.30467   0.90499   0.47636 
H          H       0.69533   0.90499   0.52364 
H          H       0.93060   0.23536   0.82330 
H          H       0.06940   0.23536   0.17670 
H          H       0.43060   0.73536   0.82330 
H          H       0.56940   0.73536   0.17670 
H          H       0.85055   0.02700   0.61041 
H          H       0.14945   0.02700   0.38959 
H          H       0.35055   0.52700   0.61041 
H          H       0.64945   0.52700   0.38959 
H          H       0.74775   0.93134   0.65516 
H          H       0.25225   0.93134   0.34484 
H          H       0.24775   0.43134   0.65516 
H          H       0.75225   0.43134   0.34484 
H          H       0.74187   0.00820   0.55190 
H          H       0.25813   0.00820   0.44810 
H          H       0.24187   0.50820   0.55190 
H          H       0.75813   0.50820   0.44810 
H          H       0.89481   0.88466   0.82599 
H          H       0.10519   0.88466   0.17401 
H          H       0.39481   0.38466   0.82599 
H          H       0.60519   0.38466   0.17401 
H          H       0.88772   0.84636   0.96264 
H          H       0.11228   0.84636   0.03736 
H          H       0.38772   0.34636   0.96264 
H          H       0.61228   0.34636   0.03736 
H          H       0.89127   0.79532   0.87834 
H          H       0.10873   0.79532   0.12166 
H          H       0.39127   0.29532   0.87834 
H          H       0.60873   0.29532   0.12166 
H          H       0.89535   0.75194   0.02673 
H          H       0.10465   0.75194   0.97327 
H          H       0.39535   0.25194   0.02673 
H          H       0.60465   0.25194   0.97327 
H          H       0.85670   0.73003   0.94563 
H          H       0.14330   0.73003   0.05437 
H          H       0.35670   0.23003   0.94563 
H          H       0.64330   0.23003   0.05437 
H          H       0.85424   0.78070   0.03030 
H          H       0.14576   0.78070   0.96970 
H          H       0.35424   0.28070   0.03030 
H          H       0.64576   0.28070   0.96970 
H          H       0.89618   0.97453   0.63486 
H          H       0.10382   0.97453   0.36514 
H          H       0.39618   0.47453   0.63486 
H          H       0.60382   0.47453   0.36514 
H          H       0.15770   0.76700   0.67152 
H          H       0.84230   0.76700   0.32848 
H          H       0.65770   0.26700   0.67152 
H          H       0.34230   0.26700   0.32848 
H          H       0.27689   0.69924   0.71407 
H          H       0.72311   0.69924   0.28593 
H          H       0.77689   0.19924   0.71407 
H          H       0.22311   0.19924   0.28593 
H          H       0.23055   0.63645   0.72087 
H          H       0.76945   0.63645   0.27913 
H          H       0.73055   0.13645   0.72087 
H          H       0.26945   0.13645   0.27913 
H          H       0.22567   0.92797   0.64563 
H          H       0.77433   0.92797   0.35437 
H          H       0.72567   0.42797   0.64563 
H          H       0.27433   0.42797   0.35437 
H          H       0.32141   0.95144   0.76320 
H          H       0.67859   0.95144   0.23680 
H          H       0.82141   0.45144   0.76320 
H          H       0.17859   0.45144   0.23680 
H          H       0.27701   0.95129   0.76496 
H          H       0.72299   0.95129   0.23504 
H          H       0.77701   0.45129   0.76496 
H          H       0.22299   0.45129   0.23504 
H          H       0.30645   0.99901   0.61266 
H          H       0.69355   0.99901   0.38734 
H          H       0.80645   0.49901   0.61266 
H          H       0.19355   0.49901   0.38734 
H          H       0.29432   0.03790   0.70063 
H          H       0.70568   0.03790   0.29937 
H          H       0.79432   0.53790   0.70063 
H          H       0.20568   0.53790   0.29937 
H          H       0.26200   0.00140   0.61812 
H          H       0.73800   0.00140   0.38188 
H          H       0.76200   0.50140   0.61812 
H          H       0.23800   0.50140   0.38188 
H          H       0.15363   0.85243   0.70236 
H          H       0.84637   0.85243   0.29764 
H          H       0.65363   0.35243   0.70236 
H          H       0.34637   0.35243   0.29764 
