data_crystal
 
_cell_length_a    29.09640
_cell_length_b    29.09640
_cell_length_c    6.89200
_cell_angle_alpha 90.00000
_cell_angle_beta  90.00000
_cell_angle_gamma 120.00000
 
_space_group_name_Hall 'P 1'
_space_group_name_H-M_alt  'P 1'
 
loop_
_symmetry_equiv_pos_as_xyz
 'x,y,z' 
 
loop_
_atom_site_label
_atom_site_type_symbol
_atom_site_fract_x
_atom_site_fract_y
_atom_site_fract_z
C          C       0.71800   0.24369   0.25000 
C          C       0.75631   0.47431   0.25000 
C          C       0.52569   0.28200   0.25000 
C          C       0.28200   0.75631   0.75000 
C          C       0.24369   0.52569   0.75000 
C          C       0.47431   0.71800   0.75000 
N          N       0.64613   0.28062   0.25000 
N          N       0.71938   0.36551   0.25000 
N          N       0.63449   0.35387   0.25000 
N          N       0.35387   0.71938   0.75000 
N          N       0.28062   0.63449   0.75000 
N          N       0.36551   0.64613   0.75000 
C          C       0.73247   0.29393   0.25000 
C          C       0.70607   0.43854   0.25000 
C          C       0.56146   0.26753   0.25000 
C          C       0.26753   0.70607   0.75000 
C          C       0.29393   0.56146   0.75000 
C          C       0.43854   0.73247   0.75000 
C          C       0.75208   0.22263   0.25000 
C          C       0.77737   0.52945   0.25000 
C          C       0.47055   0.24792   0.25000 
C          C       0.24792   0.77737   0.75000 
C          C       0.22263   0.47055   0.75000 
C          C       0.52945   0.75208   0.75000 
C          C       0.80587   0.25316   0.25000 
C          C       0.74684   0.55271   0.25000 
C          C       0.44729   0.19413   0.25000 
C          C       0.19413   0.74684   0.75000 
C          C       0.25316   0.44729   0.75000 
C          C       0.55271   0.80587   0.75000 
C          C       0.83691   0.23155   0.25000 
C          C       0.76845   0.60536   0.25000 
C          C       0.39464   0.16309   0.25000 
C          C       0.16309   0.76845   0.75000 
C          C       0.23155   0.39464   0.75000 
C          C       0.60536   0.83691   0.75000 
C          C       0.81660   0.17804   0.25000 
C          C       0.82196   0.63856   0.25000 
C          C       0.36144   0.18340   0.25000 
C          C       0.18340   0.82196   0.75000 
C          C       0.17804   0.36144   0.75000 
C          C       0.63856   0.81660   0.75000 
C          C       0.76285   0.14767   0.25000 
C          C       0.85233   0.61518   0.25000 
C          C       0.38482   0.23715   0.25000 
C          C       0.23715   0.85233   0.75000 
C          C       0.14767   0.38482   0.75000 
C          C       0.61518   0.76285   0.75000 
C          C       0.73161   0.16924   0.25000 
C          C       0.83076   0.56237   0.25000 
C          C       0.43763   0.26839   0.25000 
C          C       0.26839   0.83076   0.75000 
C          C       0.16924   0.43763   0.75000 
C          C       0.56237   0.73161   0.75000 
C          C       0.69735   0.31388   0.25000 
C          C       0.68612   0.38347   0.25000 
C          C       0.61653   0.30265   0.25000 
C          C       0.30265   0.68612   0.75000 
C          C       0.31388   0.61653   0.75000 
C          C       0.38347   0.69735   0.75000 
H          H       0.67693   0.21623   0.25000 
H          H       0.78377   0.46070   0.25000 
H          H       0.53930   0.32307   0.25000 
H          H       0.32307   0.78377   0.75000 
H          H       0.21623   0.53930   0.75000 
H          H       0.46070   0.67693   0.75000 
H          H       0.69012   0.14432   0.25000 
H          H       0.85568   0.54580   0.25000 
H          H       0.45420   0.30988   0.25000 
H          H       0.30988   0.85568   0.75000 
H          H       0.14432   0.45420   0.75000 
H          H       0.54580   0.69012   0.75000 
H          H       0.87817   0.25710   0.25000 
H          H       0.74290   0.62107   0.25000 
H          H       0.37893   0.12183   0.25000 
H          H       0.12183   0.74290   0.75000 
H          H       0.25710   0.37893   0.75000 
H          H       0.62107   0.87817   0.75000 
H          H       0.74473   0.10613   0.25000 
H          H       0.89387   0.63860   0.25000 
H          H       0.36140   0.25527   0.25000 
H          H       0.25527   0.89387   0.75000 
H          H       0.10613   0.36140   0.75000 
H          H       0.63860   0.74473   0.75000 
H          H       0.82367   0.29472   0.25000 
H          H       0.70528   0.52895   0.25000 
H          H       0.47105   0.17633   0.25000 
H          H       0.17633   0.70528   0.75000 
H          H       0.29472   0.47105   0.75000 
H          H       0.52895   0.82367   0.75000 
H          H       0.67639   0.44907   0.25000 
H          H       0.55093   0.22732   0.25000 
H          H       0.77268   0.32361   0.25000 
H          H       0.32361   0.55093   0.75000 
H          H       0.44907   0.77268   0.75000 
H          H       0.22732   0.67639   0.75000 
C          C       0.94866   0.08964   0.25000 
C          C       0.91036   0.85902   0.25000 
C          C       0.14098   0.05134   0.25000 
C          C       0.05134   0.91036   0.75000 
C          C       0.08964   0.14098   0.75000 
C          C       0.85902   0.94866   0.75000 
N          N       0.02054   0.05271   0.25000 
N          N       0.94729   0.96783   0.25000 
N          N       0.03217   0.97946   0.25000 
N          N       0.97946   0.94729   0.75000 
N          N       0.05271   0.03217   0.75000 
N          N       0.96783   0.02054   0.75000 
C          C       0.93419   0.03941   0.25000 
C          C       0.96059   0.89478   0.25000 
C          C       0.10522   0.06581   0.25000 
C          C       0.06581   0.96059   0.75000 
C          C       0.03941   0.10522   0.75000 
C          C       0.89478   0.93419   0.75000 
C          C       0.91459   0.11071   0.25000 
C          C       0.88929   0.80388   0.25000 
C          C       0.19612   0.08541   0.25000 
C          C       0.08541   0.88929   0.75000 
C          C       0.11071   0.19612   0.75000 
C          C       0.80388   0.91459   0.75000 
C          C       0.86080   0.08018   0.25000 
C          C       0.91982   0.78062   0.25000 
C          C       0.21938   0.13920   0.25000 
C          C       0.13920   0.91982   0.75000 
C          C       0.08018   0.21938   0.75000 
C          C       0.78062   0.86080   0.75000 
C          C       0.82976   0.10179   0.25000 
C          C       0.89821   0.72797   0.25000 
C          C       0.27203   0.17024   0.25000 
C          C       0.17024   0.89821   0.75000 
C          C       0.10179   0.27203   0.75000 
C          C       0.72797   0.82976   0.75000 
C          C       0.85007   0.15530   0.25000 
C          C       0.84470   0.69477   0.25000 
C          C       0.30523   0.14993   0.25000 
C          C       0.14993   0.84470   0.75000 
C          C       0.15530   0.30523   0.75000 
C          C       0.69477   0.85007   0.75000 
C          C       0.90381   0.18567   0.25000 
C          C       0.81433   0.71814   0.25000 
C          C       0.28186   0.09619   0.25000 
C          C       0.09619   0.81433   0.75000 
C          C       0.18567   0.28186   0.75000 
C          C       0.71814   0.90381   0.75000 
C          C       0.93505   0.16409   0.25000 
C          C       0.83591   0.77096   0.25000 
C          C       0.22904   0.06495   0.25000 
C          C       0.06495   0.83591   0.75000 
C          C       0.16409   0.22904   0.75000 
C          C       0.77096   0.93505   0.75000 
C          C       0.96932   0.01946   0.25000 
C          C       0.98054   0.94986   0.25000 
C          C       0.05014   0.03068   0.25000 
C          C       0.03068   0.98054   0.75000 
C          C       0.01946   0.05014   0.75000 
C          C       0.94986   0.96932   0.75000 
H          H       0.98974   0.11711   0.25000 
H          H       0.88289   0.87263   0.25000 
H          H       0.12737   0.01026   0.25000 
H          H       0.01026   0.88289   0.75000 
H          H       0.11711   0.12737   0.75000 
H          H       0.87263   0.98974   0.75000 
H          H       0.97655   0.18901   0.25000 
H          H       0.81099   0.78754   0.25000 
H          H       0.21246   0.02345   0.25000 
H          H       0.02345   0.81099   0.75000 
H          H       0.18901   0.21246   0.75000 
H          H       0.78754   0.97655   0.75000 
H          H       0.78850   0.07624   0.25000 
H          H       0.92376   0.71226   0.25000 
H          H       0.28774   0.21150   0.25000 
H          H       0.21150   0.92376   0.75000 
H          H       0.07624   0.28774   0.75000 
H          H       0.71226   0.78850   0.75000 
H          H       0.92193   0.22720   0.25000 
H          H       0.77280   0.69473   0.25000 
H          H       0.30527   0.07807   0.25000 
H          H       0.07807   0.77280   0.75000 
H          H       0.22720   0.30527   0.75000 
H          H       0.69473   0.92193   0.75000 
H          H       0.84300   0.03862   0.25000 
H          H       0.96138   0.80438   0.25000 
H          H       0.19562   0.15700   0.25000 
H          H       0.15700   0.96138   0.75000 
H          H       0.03862   0.19562   0.75000 
H          H       0.80438   0.84300   0.75000 
H          H       0.99028   0.88426   0.25000 
H          H       0.11574   0.10602   0.25000 
H          H       0.89398   0.00972   0.25000 
H          H       0.00972   0.11574   0.75000 
H          H       0.88426   0.89398   0.75000 
H          H       0.10602   0.99028   0.75000 
