data_crystal

_cell_length_a    37.59850
_cell_length_b    37.59850
_cell_length_c    8.24580
_cell_angle_alpha 90.00000
_cell_angle_beta  90.00000
_cell_angle_gamma 120.00000

_space_group_name_Hall 'P 1'
_space_group_name_H-M_alt  'P 1'

loop_
_symmetry_equiv_pos_as_xyz
'x,y,z' 

loop_
_atom_site_label
_atom_site_type_symbol
_atom_site_fract_x
_atom_site_fract_y
_atom_site_fract_z
C          C       0.39421   0.84247   0.14527 
C          C       0.15753   0.55174   0.14527 
C          C       0.44826   0.60579   0.14527 
C          C       0.30439   0.67970   0.21022 
C          C       0.32030   0.62469   0.21022 
C          C       0.37531   0.69561   0.21022 
C          C       0.34640   0.70890   0.21038 
C          C       0.29110   0.63750   0.21038 
C          C       0.36250   0.65360   0.21038 
C          C       0.35938   0.75300   0.20917 
C          C       0.24700   0.60638   0.20917 
C          C       0.39362   0.64062   0.20917 
H          H       0.28210   0.68995   0.20955 
H          H       0.31005   0.59215   0.20955 
H          H       0.40785   0.71790   0.20955 
C          C       0.41372   0.82432   0.22881 
C          C       0.17568   0.58940   0.22881 
C          C       0.41060   0.58628   0.22881 
C          C       0.41152   0.88513   0.14416 
C          C       0.11487   0.52639   0.14416 
C          C       0.47361   0.58848   0.14416 
C          C       0.44816   0.91044   0.22789 
C          C       0.08956   0.53772   0.22789 
C          C       0.46228   0.55184   0.22789 
C          C       0.46787   0.89216   0.30830 
C          C       0.10784   0.57571   0.30830 
C          C       0.42429   0.53213   0.30830 
C          C       0.45094   0.84956   0.30785 
C          C       0.15044   0.60138   0.30785 
C          C       0.39862   0.54906   0.30785 
C          C       0.46760   0.95599   0.22381 
C          C       0.04401   0.51161   0.22381 
C          C       0.48839   0.53240   0.22381 
C          C       0.50813   0.97912   0.17054 
C          C       0.02088   0.52901   0.17054 
C          C       0.47099   0.49187   0.17054 
C          C       0.46945   0.02227   0.26910 
C          C       0.97773   0.44718   0.26910 
C          C       0.55282   0.53055   0.26910 
H          H       0.36630   0.82406   0.07717 
H          H       0.17594   0.54224   0.07717 
H          H       0.45776   0.63370   0.07717 
H          H       0.33615   0.76177   0.19554 
H          H       0.23823   0.57438   0.19554 
H          H       0.42562   0.66385   0.19554 
H          H       0.39615   0.89834   0.07857 
H          H       0.10166   0.49781   0.07857 
H          H       0.50219   0.60385   0.07857 
H          H       0.49662   0.91096   0.37038 
H          H       0.08904   0.58566   0.37038 
H          H       0.41434   0.50338   0.37038 
H          H       0.46666   0.83612   0.37073 
H          H       0.16388   0.63054   0.37073 
H          H       0.36946   0.53334   0.37073 
N          N       0.53399   0.96482   0.10951 
N          N       0.03518   0.56917   0.10951 
N          N       0.43083   0.46601   0.10951 
C          C       0.40370   0.95585   0.33504 
C          C       0.04415   0.44785   0.33504 
C          C       0.55215   0.59630   0.33504 
H          H       0.46666   0.07843   0.32250 
H          H       0.92157   0.38823   0.32250 
H          H       0.61177   0.53334   0.32250 
H          H       0.38943   0.92221   0.33803 
H          H       0.07779   0.46722   0.33803 
H          H       0.53278   0.61057   0.33803 
H          H       0.38417   0.96307   0.25663 
H          H       0.03693   0.42110   0.25663 
H          H       0.57890   0.61583   0.25663 
N          N       0.39766   0.78073   0.23036 
N          N       0.21927   0.61693   0.23036 
N          N       0.38307   0.60234   0.23036 
C          C       0.60143   0.15086   0.28985 
C          C       0.84914   0.45057   0.28985 
C          C       0.54943   0.39857   0.28985 
C          C       0.67969   0.30438   0.18349 
C          C       0.69562   0.37531   0.18349 
C          C       0.62469   0.32031   0.18349 
C          C       0.63749   0.29110   0.18375 
C          C       0.70890   0.34639   0.18375 
C          C       0.65361   0.36251   0.18375 
C          C       0.60636   0.24700   0.18390 
C          C       0.75300   0.35936   0.18390 
C          C       0.64064   0.39364   0.18390 
H          H       0.68993   0.28208   0.18316 
H          H       0.71792   0.40785   0.18316 
H          H       0.59215   0.31007   0.18316 
C          C       0.58935   0.17575   0.20871 
C          C       0.82425   0.41360   0.20871 
C          C       0.58640   0.41065   0.20871 
C          C       0.57569   0.10829   0.29399 
C          C       0.89171   0.46740   0.29399 
C          C       0.53260   0.42431   0.29399 
C          C       0.53743   0.08967   0.21509 
C          C       0.91033   0.44776   0.21509 
C          C       0.55224   0.46257   0.21509 
C          C       0.52602   0.11462   0.12913 
C          C       0.88538   0.41140   0.12913 
C          C       0.58860   0.47398   0.12913 
C          C       0.55148   0.15726   0.12665 
C          C       0.84274   0.39422   0.12665 
C          C       0.60578   0.44852   0.12665 
C          C       0.51120   0.04410   0.21509 
C          C       0.95590   0.46710   0.21509 
C          C       0.53290   0.48880   0.21509 
C          C       0.52864   0.02078   0.16489 
C          C       0.97922   0.50786   0.16489 
C          C       0.49214   0.47136   0.16489 
C          C       0.44756   0.97806   0.27332 
C          C       0.02194   0.46950   0.27332 
C          C       0.53050   0.55244   0.27332 
H          H       0.63072   0.16458   0.35192 
H          H       0.83542   0.46614   0.35192 
H          H       0.53386   0.36928   0.35192 
H          H       0.57436   0.23822   0.17022 
H          H       0.76178   0.33614   0.17022 
H          H       0.66386   0.42564   0.17022 
H          H       0.58568   0.08986   0.35897 
H          H       0.91014   0.49582   0.35897 
H          H       0.50418   0.41432   0.35897 
H          H       0.49728   0.10116   0.06467 
H          H       0.89884   0.39612   0.06467 
H          H       0.60388   0.50272   0.06467 
H          H       0.54186   0.17536   0.05706 
H          H       0.82464   0.36650   0.05706 
H          H       0.63350   0.45814   0.05706 
N          N       0.56835   0.03530   0.09723 
N          N       0.96470   0.53305   0.09723 
N          N       0.46695   0.43165   0.09723 
C          C       0.44764   0.04474   0.32591 
C          C       0.95526   0.40290   0.32591 
C          C       0.59710   0.55236   0.32591 
H          H       0.40269   0.96558   0.46098 
H          H       0.03442   0.43711   0.46098 
H          H       0.56289   0.59731   0.46098 
Li         Li      0.09090   0.61592   0.09585 
Li         Li      0.38408   0.47498   0.09585 
Li         Li      0.52502   0.90910   0.09585 
H          H       0.43757   0.03645   0.45337 
H          H       0.96355   0.40112   0.45337 
H          H       0.59888   0.56243   0.45337 
H          H       0.42041   0.03623   0.24851 
H          H       0.96377   0.38418   0.24851 
H          H       0.61582   0.57959   0.24851 
N          N       0.61690   0.21934   0.20740 
N          N       0.78066   0.39756   0.20740 
N          N       0.60244   0.38310   0.20740 
C          C       0.57017   0.00234   0.06633 
C          C       0.99766   0.56783   0.06633 
C          C       0.43217   0.42983   0.06633 
C          C       0.60645   0.00347   0.48711 
C          C       0.99653   0.60298   0.48711 
C          C       0.39702   0.39355   0.48711 
F          F       0.62714   0.03850   0.39336 
F          F       0.96150   0.58864   0.39336 
F          F       0.41136   0.37286   0.39336 
F          F       0.59338   0.96922   0.38987 
F          F       0.03078   0.62416   0.38987 
F          F       0.37584   0.40662   0.38987 
F          F       0.63285   0.00350   0.10347 
F          F       0.99650   0.62935   0.10347 
F          F       0.37065   0.36715   0.10347 
C          C       0.39421   0.84247   0.64527 
C          C       0.15753   0.55174   0.64527 
C          C       0.44826   0.60579   0.64527 
C          C       0.30439   0.67970   0.71022 
C          C       0.32030   0.62469   0.71022 
C          C       0.37531   0.69561   0.71022 
C          C       0.34640   0.70890   0.71037 
C          C       0.29110   0.63750   0.71037 
C          C       0.36250   0.65360   0.71037 
C          C       0.35938   0.75300   0.70917 
C          C       0.24700   0.60638   0.70917 
C          C       0.39362   0.64062   0.70917 
H          H       0.28210   0.68995   0.70954 
H          H       0.31005   0.59215   0.70954 
H          H       0.40785   0.71790   0.70954 
C          C       0.41372   0.82432   0.72881 
C          C       0.17568   0.58940   0.72881 
C          C       0.41060   0.58628   0.72881 
C          C       0.41152   0.88513   0.64416 
C          C       0.11487   0.52639   0.64416 
C          C       0.47361   0.58848   0.64416 
C          C       0.44816   0.91044   0.72790 
C          C       0.08956   0.53772   0.72790 
C          C       0.46228   0.55184   0.72790 
C          C       0.46787   0.89216   0.80830 
C          C       0.10784   0.57571   0.80830 
C          C       0.42429   0.53213   0.80830 
C          C       0.45094   0.84956   0.80785 
C          C       0.15044   0.60138   0.80785 
C          C       0.39862   0.54906   0.80785 
C          C       0.46760   0.95599   0.72381 
C          C       0.04401   0.51161   0.72381 
C          C       0.48839   0.53240   0.72381 
C          C       0.50813   0.97912   0.67054 
C          C       0.02088   0.52901   0.67054 
C          C       0.47099   0.49187   0.67054 
C          C       0.46945   0.02227   0.76910 
C          C       0.97773   0.44718   0.76910 
C          C       0.55282   0.53055   0.76910 
H          H       0.36630   0.82406   0.57717 
H          H       0.17594   0.54224   0.57717 
H          H       0.45776   0.63370   0.57717 
H          H       0.33615   0.76177   0.69555 
H          H       0.23823   0.57438   0.69555 
H          H       0.42562   0.66385   0.69555 
H          H       0.39615   0.89834   0.57857 
H          H       0.10166   0.49781   0.57857 
H          H       0.50219   0.60385   0.57857 
H          H       0.49662   0.91096   0.87038 
H          H       0.08904   0.58566   0.87038 
H          H       0.41434   0.50338   0.87038 
H          H       0.46666   0.83612   0.87073 
H          H       0.16388   0.63054   0.87073 
H          H       0.36946   0.53334   0.87073 
N          N       0.53399   0.96482   0.60951 
N          N       0.03518   0.56917   0.60951 
N          N       0.43083   0.46601   0.60951 
C          C       0.40370   0.95585   0.83504 
C          C       0.04415   0.44785   0.83504 
C          C       0.55215   0.59630   0.83504 
H          H       0.46666   0.07843   0.82250 
H          H       0.92157   0.38823   0.82250 
H          H       0.61177   0.53334   0.82250 
H          H       0.38943   0.92221   0.83803 
H          H       0.07779   0.46722   0.83803 
H          H       0.53278   0.61057   0.83803 
H          H       0.38417   0.96307   0.75663 
H          H       0.03693   0.42110   0.75663 
H          H       0.57890   0.61583   0.75663 
N          N       0.39766   0.78073   0.73037 
N          N       0.21927   0.61693   0.73037 
N          N       0.38307   0.60234   0.73037 
C          C       0.60143   0.15086   0.78985 
C          C       0.84914   0.45057   0.78985 
C          C       0.54943   0.39857   0.78985 
C          C       0.67969   0.30438   0.68349 
C          C       0.69562   0.37531   0.68349 
C          C       0.62469   0.32031   0.68349 
C          C       0.63749   0.29110   0.68375 
C          C       0.70890   0.34639   0.68375 
C          C       0.65361   0.36251   0.68375 
C          C       0.60636   0.24700   0.68390 
C          C       0.75300   0.35936   0.68390 
C          C       0.64064   0.39364   0.68390 
H          H       0.68993   0.28208   0.68315 
H          H       0.71792   0.40785   0.68315 
H          H       0.59215   0.31007   0.68315 
C          C       0.58935   0.17575   0.70871 
C          C       0.82425   0.41360   0.70871 
C          C       0.58640   0.41065   0.70871 
C          C       0.57569   0.10829   0.79399 
C          C       0.89171   0.46740   0.79399 
C          C       0.53260   0.42431   0.79399 
C          C       0.53743   0.08967   0.71509 
C          C       0.91033   0.44776   0.71509 
C          C       0.55224   0.46257   0.71509 
C          C       0.52602   0.11462   0.62913 
C          C       0.88538   0.41140   0.62913 
C          C       0.58860   0.47398   0.62913 
C          C       0.55148   0.15726   0.62665 
C          C       0.84274   0.39422   0.62665 
C          C       0.60578   0.44852   0.62665 
C          C       0.51120   0.04410   0.71509 
C          C       0.95590   0.46710   0.71509 
C          C       0.53290   0.48880   0.71509 
C          C       0.52864   0.02078   0.66488 
C          C       0.97922   0.50786   0.66488 
C          C       0.49214   0.47136   0.66488 
C          C       0.44756   0.97806   0.77332 
C          C       0.02194   0.46950   0.77332 
C          C       0.53050   0.55244   0.77332 
H          H       0.63072   0.16458   0.85193 
H          H       0.83542   0.46614   0.85193 
H          H       0.53386   0.36928   0.85193 
H          H       0.57436   0.23822   0.67022 
H          H       0.76178   0.33614   0.67022 
H          H       0.66386   0.42564   0.67022 
H          H       0.58568   0.08986   0.85898 
H          H       0.91014   0.49582   0.85898 
H          H       0.50418   0.41432   0.85898 
H          H       0.49728   0.10116   0.56467 
H          H       0.89884   0.39612   0.56467 
H          H       0.60388   0.50272   0.56467 
H          H       0.54186   0.17536   0.55706 
H          H       0.82464   0.36650   0.55706 
H          H       0.63350   0.45814   0.55706 
N          N       0.56835   0.03530   0.59723 
N          N       0.96470   0.53305   0.59723 
N          N       0.46695   0.43165   0.59723 
C          C       0.44764   0.04474   0.82591 
C          C       0.95526   0.40290   0.82591 
C          C       0.59710   0.55236   0.82591 
H          H       0.40269   0.96558   0.96098 
H          H       0.03442   0.43711   0.96098 
H          H       0.56289   0.59731   0.96098 
Li         Li      0.09090   0.61592   0.59585 
Li         Li      0.38408   0.47498   0.59585 
Li         Li      0.52502   0.90910   0.59585 
H          H       0.43757   0.03645   0.95337 
H          H       0.96355   0.40112   0.95337 
H          H       0.59888   0.56243   0.95337 
H          H       0.42041   0.03623   0.74850 
H          H       0.96377   0.38418   0.74850 
H          H       0.61582   0.57959   0.74850 
N          N       0.61690   0.21934   0.70740 
N          N       0.78066   0.39756   0.70740 
N          N       0.60244   0.38310   0.70740 
C          C       0.57017   0.00234   0.56633 
C          C       0.99766   0.56783   0.56633 
C          C       0.43217   0.42983   0.56633 
C          C       0.60645   0.00347   0.98711 
C          C       0.99653   0.60298   0.98711 
C          C       0.39702   0.39355   0.98711 
F          F       0.62714   0.03850   0.89336 
F          F       0.96150   0.58864   0.89336 
F          F       0.41136   0.37286   0.89336 
F          F       0.59338   0.96922   0.88987 
F          F       0.03078   0.62416   0.88987 
F          F       0.37584   0.40662   0.88987 
F          F       0.63285   0.00350   0.60347 
F          F       0.99650   0.62935   0.60347 
F          F       0.37065   0.36715   0.60347 
