data_crystal

_cell_length_a    37.61410
_cell_length_b    37.61410
_cell_length_c    8.29200
_cell_angle_alpha 90.00000
_cell_angle_beta  90.00000
_cell_angle_gamma 120.00000

_space_group_name_Hall 'P 1'
_space_group_name_H-M_alt  'P 1'

loop_
_symmetry_equiv_pos_as_xyz
'x,y,z' 

loop_
_atom_site_label
_atom_site_type_symbol
_atom_site_fract_x
_atom_site_fract_y
_atom_site_fract_z
C          C       0.39708   0.84319   0.12876 
C          C       0.15681   0.55389   0.12876 
C          C       0.44611   0.60292   0.12876 
C          C       0.30490   0.68033   0.18441 
C          C       0.31967   0.62457   0.18441 
C          C       0.37543   0.69510   0.18441 
C          C       0.34703   0.70902   0.18469 
C          C       0.29098   0.63801   0.18469 
C          C       0.36199   0.65297   0.18469 
C          C       0.36069   0.75326   0.18508 
C          C       0.24674   0.60743   0.18508 
C          C       0.39257   0.63931   0.18508 
H          H       0.28300   0.69106   0.18412 
H          H       0.30894   0.59194   0.18412 
H          H       0.40806   0.71700   0.18412 
C          C       0.41559   0.82409   0.21207 
C          C       0.17591   0.59150   0.21207 
C          C       0.40850   0.58441   0.21207 
C          C       0.41486   0.88588   0.13185 
C          C       0.11412   0.52898   0.13185 
C          C       0.47102   0.58514   0.13185 
C          C       0.45094   0.91030   0.21971 
C          C       0.08970   0.54064   0.21971 
C          C       0.45936   0.54906   0.21971 
C          C       0.46961   0.89105   0.30014 
C          C       0.10895   0.57856   0.30014 
C          C       0.42144   0.53039   0.30014 
C          C       0.45229   0.84844   0.29519 
C          C       0.15156   0.60385   0.29519 
C          C       0.39615   0.54771   0.29519 
C          C       0.47060   0.95591   0.22141 
C          C       0.04409   0.51469   0.22141 
C          C       0.48531   0.52940   0.22141 
C          C       0.51153   0.97955   0.17302 
C          C       0.02045   0.53198   0.17302 
C          C       0.46802   0.48847   0.17302 
C          C       0.47213   0.02180   0.27368 
C          C       0.97820   0.45033   0.27368 
C          C       0.54967   0.52787   0.27368 
H          H       0.36960   0.82552   0.05784 
H          H       0.17448   0.54408   0.05784 
H          H       0.45592   0.63040   0.05784 
H          H       0.33789   0.76256   0.17045 
H          H       0.23744   0.57533   0.17045 
H          H       0.42467   0.66211   0.17045 
H          H       0.40020   0.89981   0.06678 
H          H       0.10019   0.50039   0.06678 
H          H       0.49961   0.59980   0.06678 
H          H       0.49783   0.90907   0.36587 
H          H       0.09093   0.58876   0.36587 
H          H       0.41124   0.50217   0.36587 
H          H       0.46723   0.83426   0.35820 
H          H       0.16574   0.63297   0.35820 
H          H       0.36703   0.53277   0.35820 
N          N       0.53794   0.96626   0.10952 
N          N       0.03374   0.57168   0.10952 
N          N       0.42832   0.46206   0.10952 
C          C       0.40589   0.95499   0.32737 
C          C       0.04501   0.45090   0.32737 
C          C       0.54910   0.59411   0.32737 
H          H       0.46924   0.07750   0.33435 
H          H       0.92250   0.39174   0.33435 
H          H       0.60826   0.53076   0.33435 
H          H       0.39145   0.92133   0.32599 
H          H       0.07867   0.47012   0.32599 
H          H       0.52988   0.60855   0.32599 
H          H       0.38712   0.96301   0.24846 
H          H       0.03699   0.42411   0.24846 
H          H       0.57589   0.61288   0.24846 
N          N       0.39895   0.78043   0.21016 
N          N       0.21957   0.61852   0.21016 
N          N       0.38148   0.60105   0.21016 
C          C       0.60325   0.15112   0.30269 
C          C       0.84888   0.45213   0.30269 
C          C       0.54787   0.39675   0.30269 
C          C       0.68015   0.30476   0.19919 
C          C       0.69524   0.37539   0.19919 
C          C       0.62461   0.31985   0.19919 
C          C       0.63787   0.29102   0.19940 
C          C       0.70898   0.34685   0.19940 
C          C       0.65315   0.36213   0.19940 
C          C       0.60713   0.24682   0.19900 
C          C       0.75318   0.36031   0.19900 
C          C       0.63969   0.39287   0.19900 
H          H       0.69074   0.28274   0.19870 
H          H       0.71726   0.40800   0.19870 
H          H       0.59200   0.30926   0.19870 
C          C       0.59093   0.17582   0.22205 
C          C       0.82418   0.41511   0.22205 
C          C       0.58489   0.40907   0.22205 
C          C       0.57793   0.10850   0.30535 
C          C       0.89150   0.46943   0.30535 
C          C       0.53057   0.42207   0.30535 
C          C       0.53988   0.08966   0.22552 
C          C       0.91034   0.45022   0.22552 
C          C       0.54978   0.46012   0.22552 
C          C       0.52822   0.11442   0.14022 
C          C       0.88558   0.41380   0.14022 
C          C       0.58620   0.47178   0.14022 
C          C       0.55325   0.15710   0.13914 
C          C       0.84290   0.39615   0.13914 
C          C       0.60385   0.44675   0.13914 
C          C       0.51411   0.04408   0.22351 
C          C       0.95592   0.47003   0.22351 
C          C       0.52997   0.48589   0.22351 
C          C       0.53201   0.02128   0.17273 
C          C       0.97872   0.51073   0.17273 
C          C       0.48927   0.46799   0.17273 
C          C       0.45023   0.97759   0.27181 
C          C       0.02241   0.47264   0.27181 
C          C       0.52736   0.54977   0.27181 
H          H       0.63241   0.16503   0.36539 
H          H       0.83497   0.46738   0.36539 
H          H       0.53262   0.36759   0.36539 
H          H       0.57506   0.23769   0.18505 
H          H       0.76231   0.33737   0.18505 
H          H       0.66263   0.42494   0.18505 
H          H       0.58812   0.09021   0.36975 
H          H       0.90979   0.49791   0.36975 
H          H       0.50209   0.41188   0.36975 
H          H       0.49961   0.10076   0.07510 
H          H       0.89924   0.39885   0.07510 
H          H       0.60115   0.50039   0.07510 
H          H       0.54350   0.17508   0.06996 
H          H       0.82492   0.36842   0.06996 
H          H       0.63158   0.45650   0.06996 
N          N       0.57210   0.03658   0.10754 
N          N       0.96342   0.53552   0.10754 
N          N       0.46448   0.42790   0.10754 
C          C       0.45013   0.04382   0.33298 
C          C       0.95618   0.40631   0.33298 
C          C       0.59369   0.54987   0.33298 
H          H       0.40384   0.96365   0.45332 
H          H       0.03635   0.44019   0.45332 
H          H       0.55981   0.59616   0.45332 
H          H       0.53330   0.93661   0.09917 
H          H       0.06339   0.59669   0.09917 
H          H       0.40331   0.46670   0.09917 
H          H       0.43949   0.03445   0.45858 
H          H       0.96555   0.40504   0.45858 
H          H       0.59496   0.56051   0.45858 
H          H       0.42331   0.03610   0.25468 
H          H       0.96390   0.38721   0.25468 
H          H       0.61279   0.57669   0.25468 
N          N       0.61808   0.21947   0.22188 
N          N       0.78053   0.39861   0.22188 
N          N       0.60139   0.38192   0.22188 
C          C       0.57429   0.00408   0.07191 
C          C       0.99592   0.57021   0.07191 
C          C       0.42979   0.42571   0.07191 
C          C       0.61108   0.00624   0.49327 
C          C       0.99376   0.60484   0.49327 
C          C       0.39516   0.38892   0.49327 
F          F       0.63077   0.04113   0.39880 
F          F       0.95887   0.58964   0.39880 
F          F       0.41036   0.36923   0.39880 
F          F       0.59904   0.97198   0.39764 
F          F       0.02802   0.62706   0.39764 
F          F       0.37294   0.40096   0.39764 
F          F       0.63802   0.00755   0.10931 
F          F       0.99245   0.63047   0.10931 
F          F       0.36953   0.36198   0.10931 
C          C       0.39708   0.84319   0.62875 
C          C       0.15681   0.55389   0.62875 
C          C       0.44611   0.60292   0.62875 
C          C       0.30490   0.68033   0.68441 
C          C       0.31967   0.62457   0.68441 
C          C       0.37543   0.69510   0.68441 
C          C       0.34703   0.70902   0.68470 
C          C       0.29098   0.63801   0.68470 
C          C       0.36199   0.65297   0.68470 
C          C       0.36069   0.75326   0.68508 
C          C       0.24674   0.60743   0.68508 
C          C       0.39257   0.63931   0.68508 
H          H       0.28300   0.69106   0.68412 
H          H       0.30894   0.59194   0.68412 
H          H       0.40806   0.71700   0.68412 
C          C       0.41559   0.82409   0.71206 
C          C       0.17591   0.59150   0.71206 
C          C       0.40850   0.58441   0.71206 
C          C       0.41486   0.88588   0.63185 
C          C       0.11412   0.52898   0.63185 
C          C       0.47102   0.58514   0.63185 
C          C       0.45094   0.91030   0.71971 
C          C       0.08970   0.54064   0.71971 
C          C       0.45936   0.54906   0.71971 
C          C       0.46961   0.89105   0.80014 
C          C       0.10895   0.57856   0.80014 
C          C       0.42144   0.53039   0.80014 
C          C       0.45229   0.84844   0.79519 
C          C       0.15156   0.60385   0.79519 
C          C       0.39615   0.54771   0.79519 
C          C       0.47060   0.95591   0.72141 
C          C       0.04409   0.51469   0.72141 
C          C       0.48531   0.52940   0.72141 
C          C       0.51153   0.97955   0.67302 
C          C       0.02045   0.53198   0.67302 
C          C       0.46802   0.48847   0.67302 
C          C       0.47213   0.02180   0.77368 
C          C       0.97820   0.45033   0.77368 
C          C       0.54967   0.52787   0.77368 
H          H       0.36960   0.82552   0.55784 
H          H       0.17448   0.54408   0.55784 
H          H       0.45592   0.63040   0.55784 
H          H       0.33789   0.76256   0.67044 
H          H       0.23744   0.57533   0.67044 
H          H       0.42467   0.66211   0.67044 
H          H       0.40020   0.89981   0.56678 
H          H       0.10019   0.50039   0.56678 
H          H       0.49961   0.59980   0.56678 
H          H       0.49783   0.90907   0.86587 
H          H       0.09093   0.58876   0.86587 
H          H       0.41124   0.50217   0.86587 
H          H       0.46723   0.83426   0.85820 
H          H       0.16574   0.63297   0.85820 
H          H       0.36703   0.53277   0.85820 
N          N       0.53794   0.96626   0.60952 
N          N       0.03374   0.57168   0.60952 
N          N       0.42832   0.46206   0.60952 
C          C       0.40589   0.95499   0.82737 
C          C       0.04501   0.45090   0.82737 
C          C       0.54910   0.59411   0.82737 
H          H       0.46924   0.07750   0.83435 
H          H       0.92250   0.39174   0.83435 
H          H       0.60826   0.53076   0.83435 
H          H       0.39145   0.92133   0.82598 
H          H       0.07867   0.47012   0.82598 
H          H       0.52988   0.60855   0.82598 
H          H       0.38712   0.96301   0.74846 
H          H       0.03699   0.42411   0.74846 
H          H       0.57589   0.61288   0.74846 
N          N       0.39895   0.78043   0.71016 
N          N       0.21957   0.61852   0.71016 
N          N       0.38148   0.60105   0.71016 
C          C       0.60325   0.15112   0.80269 
C          C       0.84888   0.45213   0.80269 
C          C       0.54787   0.39675   0.80269 
C          C       0.68015   0.30476   0.69918 
C          C       0.69524   0.37539   0.69918 
C          C       0.62461   0.31985   0.69918 
C          C       0.63787   0.29102   0.69940 
C          C       0.70898   0.34685   0.69940 
C          C       0.65315   0.36213   0.69940 
C          C       0.60713   0.24682   0.69900 
C          C       0.75318   0.36031   0.69900 
C          C       0.63969   0.39287   0.69900 
H          H       0.69074   0.28274   0.69870 
H          H       0.71726   0.40800   0.69870 
H          H       0.59200   0.30926   0.69870 
C          C       0.59093   0.17582   0.72206 
C          C       0.82418   0.41511   0.72206 
C          C       0.58489   0.40907   0.72206 
C          C       0.57793   0.10850   0.80535 
C          C       0.89150   0.46943   0.80535 
C          C       0.53057   0.42207   0.80535 
C          C       0.53988   0.08966   0.72552 
C          C       0.91034   0.45022   0.72552 
C          C       0.54978   0.46012   0.72552 
C          C       0.52822   0.11442   0.64021 
C          C       0.88558   0.41380   0.64021 
C          C       0.58620   0.47178   0.64021 
C          C       0.55325   0.15710   0.63914 
C          C       0.84290   0.39615   0.63914 
C          C       0.60385   0.44675   0.63914 
C          C       0.51411   0.04408   0.72351 
C          C       0.95592   0.47003   0.72351 
C          C       0.52997   0.48589   0.72351 
C          C       0.53201   0.02128   0.67273 
C          C       0.97872   0.51073   0.67273 
C          C       0.48927   0.46799   0.67273 
C          C       0.45023   0.97759   0.77181 
C          C       0.02241   0.47264   0.77181 
C          C       0.52736   0.54977   0.77181 
H          H       0.63241   0.16503   0.86538 
H          H       0.83497   0.46738   0.86538 
H          H       0.53262   0.36759   0.86538 
H          H       0.57506   0.23769   0.68505 
H          H       0.76231   0.33737   0.68505 
H          H       0.66263   0.42494   0.68505 
H          H       0.58812   0.09021   0.86975 
H          H       0.90979   0.49791   0.86975 
H          H       0.50209   0.41188   0.86975 
H          H       0.49961   0.10076   0.57510 
H          H       0.89924   0.39885   0.57510 
H          H       0.60115   0.50039   0.57510 
H          H       0.54350   0.17508   0.56996 
H          H       0.82492   0.36842   0.56996 
H          H       0.63158   0.45650   0.56996 
N          N       0.57210   0.03658   0.60754 
N          N       0.96342   0.53552   0.60754 
N          N       0.46448   0.42790   0.60754 
C          C       0.45013   0.04382   0.83298 
C          C       0.95618   0.40631   0.83298 
C          C       0.59369   0.54987   0.83298 
H          H       0.40384   0.96365   0.95332 
H          H       0.03635   0.44019   0.95332 
H          H       0.55981   0.59616   0.95332 
H          H       0.53330   0.93661   0.59917 
H          H       0.06339   0.59669   0.59917 
H          H       0.40331   0.46670   0.59917 
H          H       0.43949   0.03445   0.95858 
H          H       0.96555   0.40504   0.95858 
H          H       0.59496   0.56051   0.95858 
H          H       0.42331   0.03610   0.75468 
H          H       0.96390   0.38721   0.75468 
H          H       0.61279   0.57669   0.75468 
N          N       0.61808   0.21947   0.72188 
N          N       0.78053   0.39861   0.72188 
N          N       0.60139   0.38192   0.72188 
C          C       0.57429   0.00408   0.57191 
C          C       0.99592   0.57021   0.57191 
C          C       0.42979   0.42571   0.57191 
C          C       0.61108   0.00624   0.99327 
C          C       0.99376   0.60484   0.99327 
C          C       0.39516   0.38892   0.99327 
F          F       0.63077   0.04113   0.89880 
F          F       0.95887   0.58964   0.89880 
F          F       0.41036   0.36923   0.89880 
F          F       0.59904   0.97198   0.89764 
F          F       0.02802   0.62706   0.89764 
F          F       0.37294   0.40096   0.89764 
F          F       0.63802   0.00755   0.60931 
F          F       0.99245   0.63047   0.60931 
F          F       0.36953   0.36198   0.60931 
