data_crystal
 
_cell_length_a    36.95310
_cell_length_b    36.95310
_cell_length_c    8.29180
_cell_angle_alpha 90.00000
_cell_angle_beta  90.00000
_cell_angle_gamma 120.00000
 
_symmetry_space_group_name_Hall 'P 1'
_symmetry_space_group_name_H-M  'P 1'
 
loop_
_symmetry_equiv_pos_as_xyz
 'x,y,z' 
 
loop_
_atom_site_label
_atom_site_type_symbol
_atom_site_fract_x
_atom_site_fract_y
_atom_site_fract_z
_atom_site_charge
C          C       0.39359   0.84223   0.44260   0.0000000000
C          C       0.15777   0.55136   0.44260   0.0000000000
C          C       0.44864   0.60641   0.44260   0.0000000000
C          C       0.30431   0.67957   0.01029   0.0000000000
C          C       0.32043   0.62474   0.01029   0.0000000000
C          C       0.37526   0.69569   0.01029   0.0000000000
C          C       0.34627   0.70886   0.01042   0.0000000000
C          C       0.29114   0.63741   0.01042   0.0000000000
C          C       0.36259   0.65373   0.01042   0.0000000000
C          C       0.35912   0.75291   0.00889   0.0000000000
C          C       0.24709   0.60621   0.00889   0.0000000000
C          C       0.39379   0.64088   0.00889   0.0000000000
H          H       0.28195   0.68972   0.00953   0.0000000000
H          H       0.31028   0.59223   0.00953   0.0000000000
H          H       0.40777   0.71805   0.00953   0.0000000000
C          C       0.41331   0.82428   0.02727   0.0000000000
C          C       0.17572   0.58903   0.02727   0.0000000000
C          C       0.41097   0.58669   0.02727   0.0000000000
C          C       0.41085   0.88486   0.44033   0.0000000000
C          C       0.11514   0.52599   0.44033   0.0000000000
C          C       0.47401   0.58915   0.44033   0.0000000000
C          C       0.44757   0.91038   0.02465   0.0000000000
C          C       0.08962   0.53719   0.02465   0.0000000000
C          C       0.46281   0.55243   0.02465   0.0000000000
C          C       0.46742   0.89225   0.10651   0.0000000000
C          C       0.10775   0.57517   0.10651   0.0000000000
C          C       0.42483   0.53258   0.10651   0.0000000000
C          C       0.45063   0.84968   0.10658   0.0000000000
C          C       0.15032   0.60095   0.10658   0.0000000000
C          C       0.39905   0.54937   0.10658   0.0000000000
C          C       0.46694   0.95594   0.01956   0.0000000000
C          C       0.04406   0.51100   0.01956   0.0000000000
C          C       0.48900   0.53306   0.01956   0.0000000000
C          C       0.50766   0.97912   0.46770   0.0000000000
C          C       0.02088   0.52854   0.46770   0.0000000000
C          C       0.47146   0.49234   0.46770   0.0000000000
C          C       0.46866   0.02223   0.06421   0.0000000000
C          C       0.97777   0.44643   0.06421   0.0000000000
C          C       0.55357   0.53134   0.06421   0.0000000000
H          H       0.36560   0.82369   0.37406   0.0000000000
H          H       0.17631   0.54191   0.37406   0.0000000000
H          H       0.45809   0.63440   0.37406   0.0000000000
H          H       0.33580   0.76156   0.49536   0.0000000000
H          H       0.23844   0.57424   0.49536   0.0000000000
H          H       0.42576   0.66420   0.49536   0.0000000000
H          H       0.39537   0.89788   0.37323   0.0000000000
H          H       0.10212   0.49749   0.37323   0.0000000000
H          H       0.50251   0.60463   0.37323   0.0000000000
H          H       0.49615   0.91112   0.16950   0.0000000000
H          H       0.08888   0.58503   0.16950   0.0000000000
H          H       0.41497   0.50385   0.16950   0.0000000000
H          H       0.46649   0.83639   0.17044   0.0000000000
H          H       0.16361   0.63010   0.17044   0.0000000000
H          H       0.36990   0.53351   0.17044   0.0000000000
N          N       0.53406   0.96492   0.41110   0.0000000000
N          N       0.03508   0.56914   0.41110   0.0000000000
N          N       0.43086   0.46594   0.41110   0.0000000000
C          C       0.40271   0.95585   0.12865   0.0000000000
C          C       0.04415   0.44686   0.12865   0.0000000000
C          C       0.55314   0.59729   0.12865   0.0000000000
H          H       0.46556   0.07826   0.11812   0.0000000000
H          H       0.92174   0.38730   0.11812   0.0000000000
H          H       0.61270   0.53444   0.11812   0.0000000000
H          H       0.38829   0.92222   0.13173   0.0000000000
H          H       0.07778   0.46607   0.13173   0.0000000000
H          H       0.53393   0.61171   0.13173   0.0000000000
H          H       0.38342   0.96318   0.04798   0.0000000000
H          H       0.03682   0.42024   0.04798   0.0000000000
H          H       0.57976   0.61658   0.04798   0.0000000000
N          N       0.39737   0.78072   0.02952   0.0000000000
N          N       0.21928   0.61665   0.02952   0.0000000000
N          N       0.38335   0.60263   0.02952   0.0000000000
C          C       0.60105   0.15068   0.09013   0.0000000000
C          C       0.84932   0.45037   0.09013   0.0000000000
C          C       0.54963   0.39895   0.09013   0.0000000000
C          C       0.67957   0.30430   0.48623   0.0000000000
C          C       0.69570   0.37527   0.48623   0.0000000000
C          C       0.62473   0.32043   0.48623   0.0000000000
C          C       0.63741   0.29115   0.48646   0.0000000000
C          C       0.70885   0.34626   0.48646   0.0000000000
C          C       0.65374   0.36259   0.48646   0.0000000000
C          C       0.60620   0.24710   0.48619   0.0000000000
C          C       0.75290   0.35910   0.48619   0.0000000000
C          C       0.64090   0.39380   0.48619   0.0000000000
H          H       0.68971   0.28194   0.48579   0.0000000000
H          H       0.71806   0.40777   0.48579   0.0000000000
H          H       0.59223   0.31029   0.48579   0.0000000000
C          C       0.58901   0.17578   0.00916   0.0000000000
C          C       0.82422   0.41323   0.00916   0.0000000000
C          C       0.58677   0.41099   0.00916   0.0000000000
C          C       0.57521   0.10814   0.09343   0.0000000000
C          C       0.89186   0.46707   0.09343   0.0000000000
C          C       0.53293   0.42479   0.09343   0.0000000000
C          C       0.53693   0.08970   0.01333   0.0000000000
C          C       0.91030   0.44723   0.01333   0.0000000000
C          C       0.55277   0.46307   0.01333   0.0000000000
C          C       0.52562   0.11489   0.42716   0.0000000000
C          C       0.88511   0.41073   0.42716   0.0000000000
C          C       0.58927   0.47438   0.42716   0.0000000000
C          C       0.55110   0.15751   0.42607   0.0000000000
C          C       0.84249   0.39359   0.42607   0.0000000000
C          C       0.60641   0.44890   0.42607   0.0000000000
C          C       0.51063   0.04411   0.01195   0.0000000000
C          C       0.95589   0.46652   0.01195   0.0000000000
C          C       0.53348   0.48937   0.01195   0.0000000000
C          C       0.52822   0.02079   0.46270   0.0000000000
C          C       0.97921   0.50743   0.46270   0.0000000000
C          C       0.49257   0.47178   0.46270   0.0000000000
C          C       0.44674   0.97801   0.06787   0.0000000000
C          C       0.02199   0.46873   0.06787   0.0000000000
C          C       0.53127   0.55326   0.06787   0.0000000000
H          H       0.63035   0.16423   0.15300   0.0000000000
H          H       0.83577   0.46612   0.15300   0.0000000000
H          H       0.53388   0.36965   0.15300   0.0000000000
H          H       0.57423   0.23843   0.47273   0.0000000000
H          H       0.76157   0.33580   0.47273   0.0000000000
H          H       0.66420   0.42577   0.47273   0.0000000000
H          H       0.58517   0.08959   0.15882   0.0000000000
H          H       0.91041   0.49558   0.15882   0.0000000000
H          H       0.50442   0.41483   0.15882   0.0000000000
H          H       0.49697   0.10165   0.36120   0.0000000000
H          H       0.89835   0.39532   0.36120   0.0000000000
H          H       0.60468   0.50303   0.36120   0.0000000000
H          H       0.54153   0.17578   0.35631   0.0000000000
H          H       0.82422   0.36575   0.35631   0.0000000000
H          H       0.63425   0.45847   0.35631   0.0000000000
N          N       0.56858   0.03539   0.40079   0.0000000000
N          N       0.96461   0.53319   0.40079   0.0000000000
N          N       0.46681   0.43142   0.40079   0.0000000000
C          C       0.44667   0.04460   0.12090   0.0000000000
C          C       0.95540   0.40207   0.12090   0.0000000000
C          C       0.59793   0.55333   0.12090   0.0000000000
H          H       0.40137   0.96553   0.25639   0.0000000000
H          H       0.03447   0.43584   0.25639   0.0000000000
H          H       0.56416   0.59863   0.25639   0.0000000000
H          H       0.06589   0.59647   0.39071   0.0000000000
H          H       0.40749   0.47215   0.39896   0.0000000000
H          H       0.53075   0.93861   0.40721   0.0000000000
H          H       0.43633   0.03620   0.25012   0.0000000000
H          H       0.96380   0.40013   0.25012   0.0000000000
H          H       0.59987   0.56367   0.25012   0.0000000000
H          H       0.41956   0.03609   0.04147   0.0000000000
H          H       0.96391   0.38347   0.04147   0.0000000000
H          H       0.61653   0.58044   0.04147   0.0000000000
N          N       0.61663   0.21933   0.00878   0.0000000000
N          N       0.78067   0.39730   0.00878   0.0000000000
N          N       0.60270   0.38337   0.00878   0.0000000000
C          C       0.57065   0.00248   0.37226   0.0000000000
C          C       0.99752   0.56817   0.37226   0.0000000000
C          C       0.43183   0.42935   0.37226   0.0000000000
H          H       0.40647   0.40310   0.32480   0.0000000000
H          H       0.99602   0.59695   0.31750   0.0000000000
H          H       0.59994  -0.00044   0.31525   0.0000000000
C          C       0.39359   0.84223   0.94260   0.0000000000
C          C       0.15777   0.55136   0.94260   0.0000000000
C          C       0.44864   0.60641   0.94260   0.0000000000
C          C       0.30431   0.67957   0.51029   0.0000000000
C          C       0.32043   0.62474   0.51029   0.0000000000
C          C       0.37526   0.69569   0.51029   0.0000000000
C          C       0.34627   0.70886   0.51042   0.0000000000
C          C       0.29114   0.63741   0.51042   0.0000000000
C          C       0.36259   0.65373   0.51042   0.0000000000
C          C       0.35912   0.75291   0.50889   0.0000000000
C          C       0.24709   0.60621   0.50889   0.0000000000
C          C       0.39379   0.64088   0.50889   0.0000000000
H          H       0.28195   0.68972   0.50953   0.0000000000
H          H       0.31028   0.59223   0.50953   0.0000000000
H          H       0.40777   0.71805   0.50953   0.0000000000
C          C       0.41331   0.82428   0.52726   0.0000000000
C          C       0.17572   0.58903   0.52726   0.0000000000
C          C       0.41097   0.58669   0.52726   0.0000000000
C          C       0.41085   0.88486   0.94034   0.0000000000
C          C       0.11514   0.52599   0.94034   0.0000000000
C          C       0.47401   0.58915   0.94034   0.0000000000
C          C       0.44757   0.91038   0.52465   0.0000000000
C          C       0.08962   0.53719   0.52465   0.0000000000
C          C       0.46281   0.55243   0.52465   0.0000000000
C          C       0.46742   0.89225   0.60652   0.0000000000
C          C       0.10775   0.57517   0.60652   0.0000000000
C          C       0.42483   0.53258   0.60652   0.0000000000
C          C       0.45063   0.84968   0.60658   0.0000000000
C          C       0.15032   0.60095   0.60658   0.0000000000
C          C       0.39905   0.54937   0.60658   0.0000000000
C          C       0.46694   0.95594   0.51957   0.0000000000
C          C       0.04406   0.51100   0.51957   0.0000000000
C          C       0.48900   0.53306   0.51957   0.0000000000
C          C       0.50766   0.97912   0.96770   0.0000000000
C          C       0.02088   0.52854   0.96770   0.0000000000
C          C       0.47146   0.49234   0.96770   0.0000000000
C          C       0.46866   0.02223   0.56421   0.0000000000
C          C       0.97777   0.44643   0.56421   0.0000000000
C          C       0.55357   0.53134   0.56421   0.0000000000
H          H       0.36560   0.82369   0.87406   0.0000000000
H          H       0.17631   0.54191   0.87406   0.0000000000
H          H       0.45809   0.63440   0.87406   0.0000000000
H          H       0.33580   0.76156   0.99536   0.0000000000
H          H       0.23844   0.57424   0.99536   0.0000000000
H          H       0.42576   0.66420   0.99536   0.0000000000
H          H       0.39537   0.89788   0.87323   0.0000000000
H          H       0.10212   0.49749   0.87323   0.0000000000
H          H       0.50251   0.60463   0.87323   0.0000000000
H          H       0.49615   0.91112   0.66950   0.0000000000
H          H       0.08888   0.58503   0.66950   0.0000000000
H          H       0.41497   0.50385   0.66950   0.0000000000
H          H       0.46649   0.83639   0.67043   0.0000000000
H          H       0.16361   0.63010   0.67043   0.0000000000
H          H       0.36990   0.53351   0.67043   0.0000000000
N          N       0.53406   0.96492   0.91111   0.0000000000
N          N       0.03508   0.56914   0.91111   0.0000000000
N          N       0.43086   0.46594   0.91111   0.0000000000
C          C       0.40271   0.95585   0.62865   0.0000000000
C          C       0.04415   0.44686   0.62865   0.0000000000
C          C       0.55314   0.59729   0.62865   0.0000000000
H          H       0.46556   0.07826   0.61812   0.0000000000
H          H       0.92174   0.38730   0.61812   0.0000000000
H          H       0.61270   0.53444   0.61812   0.0000000000
H          H       0.38829   0.92222   0.63173   0.0000000000
H          H       0.07778   0.46607   0.63173   0.0000000000
H          H       0.53393   0.61171   0.63173   0.0000000000
H          H       0.38342   0.96318   0.54798   0.0000000000
H          H       0.03682   0.42024   0.54798   0.0000000000
H          H       0.57976   0.61658   0.54798   0.0000000000
N          N       0.39737   0.78072   0.52953   0.0000000000
N          N       0.21928   0.61665   0.52953   0.0000000000
N          N       0.38335   0.60263   0.52953   0.0000000000
C          C       0.60105   0.15068   0.59013   0.0000000000
C          C       0.84932   0.45037   0.59013   0.0000000000
C          C       0.54963   0.39895   0.59013   0.0000000000
C          C       0.67957   0.30430   0.98623   0.0000000000
C          C       0.69570   0.37527   0.98623   0.0000000000
C          C       0.62473   0.32043   0.98623   0.0000000000
C          C       0.63741   0.29115   0.98646   0.0000000000
C          C       0.70885   0.34626   0.98646   0.0000000000
C          C       0.65374   0.36259   0.98646   0.0000000000
C          C       0.60620   0.24710   0.98619   0.0000000000
C          C       0.75290   0.35910   0.98619   0.0000000000
C          C       0.64090   0.39380   0.98619   0.0000000000
H          H       0.68971   0.28194   0.98579   0.0000000000
H          H       0.71806   0.40777   0.98579   0.0000000000
H          H       0.59223   0.31029   0.98579   0.0000000000
C          C       0.58901   0.17578   0.50916   0.0000000000
C          C       0.82422   0.41323   0.50916   0.0000000000
C          C       0.58677   0.41099   0.50916   0.0000000000
C          C       0.57521   0.10814   0.59344   0.0000000000
C          C       0.89186   0.46707   0.59344   0.0000000000
C          C       0.53293   0.42479   0.59344   0.0000000000
C          C       0.53693   0.08970   0.51334   0.0000000000
C          C       0.91030   0.44723   0.51334   0.0000000000
C          C       0.55277   0.46307   0.51334   0.0000000000
C          C       0.52562   0.11489   0.92716   0.0000000000
C          C       0.88511   0.41073   0.92716   0.0000000000
C          C       0.58927   0.47438   0.92716   0.0000000000
C          C       0.55110   0.15751   0.92607   0.0000000000
C          C       0.84249   0.39359   0.92607   0.0000000000
C          C       0.60641   0.44890   0.92607   0.0000000000
C          C       0.51063   0.04411   0.51194   0.0000000000
C          C       0.95589   0.46652   0.51194   0.0000000000
C          C       0.53348   0.48937   0.51194   0.0000000000
C          C       0.52822   0.02079   0.96270   0.0000000000
C          C       0.97921   0.50743   0.96270   0.0000000000
C          C       0.49257   0.47178   0.96270   0.0000000000
C          C       0.44674   0.97801   0.56787   0.0000000000
C          C       0.02199   0.46873   0.56787   0.0000000000
C          C       0.53127   0.55326   0.56787   0.0000000000
H          H       0.63035   0.16423   0.65300   0.0000000000
H          H       0.83577   0.46612   0.65300   0.0000000000
H          H       0.53388   0.36965   0.65300   0.0000000000
H          H       0.57423   0.23843   0.97273   0.0000000000
H          H       0.76157   0.33580   0.97273   0.0000000000
H          H       0.66420   0.42577   0.97273   0.0000000000
H          H       0.58517   0.08959   0.65882   0.0000000000
H          H       0.91041   0.49558   0.65882   0.0000000000
H          H       0.50442   0.41483   0.65882   0.0000000000
H          H       0.49697   0.10165   0.86120   0.0000000000
H          H       0.89835   0.39532   0.86120   0.0000000000
H          H       0.60468   0.50303   0.86120   0.0000000000
H          H       0.54153   0.17578   0.85631   0.0000000000
H          H       0.82422   0.36575   0.85631   0.0000000000
H          H       0.63425   0.45847   0.85631   0.0000000000
N          N       0.56858   0.03539   0.90079   0.0000000000
N          N       0.96461   0.53319   0.90079   0.0000000000
N          N       0.46681   0.43142   0.90079   0.0000000000
C          C       0.44667   0.04460   0.62090   0.0000000000
C          C       0.95540   0.40207   0.62090   0.0000000000
C          C       0.59793   0.55333   0.62090   0.0000000000
H          H       0.40137   0.96553   0.75639   0.0000000000
H          H       0.03447   0.43584   0.75639   0.0000000000
H          H       0.56416   0.59863   0.75639   0.0000000000
H          H       0.06589   0.59647   0.89070   0.0000000000
H          H       0.40749   0.47215   0.89896   0.0000000000
H          H       0.53075   0.93861   0.90721   0.0000000000
H          H       0.43633   0.03620   0.75012   0.0000000000
H          H       0.96380   0.40013   0.75012   0.0000000000
H          H       0.59987   0.56367   0.75012   0.0000000000
H          H       0.41956   0.03609   0.54146   0.0000000000
H          H       0.96391   0.38347   0.54146   0.0000000000
H          H       0.61653   0.58044   0.54146   0.0000000000
N          N       0.61663   0.21933   0.50878   0.0000000000
N          N       0.78067   0.39730   0.50878   0.0000000000
N          N       0.60270   0.38337   0.50878   0.0000000000
C          C       0.57065   0.00248   0.87226   0.0000000000
C          C       0.99752   0.56817   0.87226   0.0000000000
C          C       0.43183   0.42935   0.87226   0.0000000000
H          H       0.40647   0.40310   0.82479   0.0000000000
H          H       0.99602   0.59695   0.81751   0.0000000000
H          H       0.59994  -0.00044   0.81525   0.0000000000
