data_crystal
 
_cell_length_a    36.92890
_cell_length_b    36.92890
_cell_length_c    8.15100
_cell_angle_alpha 90.00000
_cell_angle_beta  90.00000
_cell_angle_gamma 120.00000
 
_symmetry_space_group_name_Hall 'P 1'
_symmetry_space_group_name_H-M  'P 1'
 
loop_
_symmetry_equiv_pos_as_xyz
 'x,y,z' 
 
loop_
_atom_site_label
_atom_site_type_symbol
_atom_site_fract_x
_atom_site_fract_y
_atom_site_fract_z
C          C       0.39359   0.84223   0.44260 
C          C       0.15777   0.55136   0.44260 
C          C       0.44864   0.60641   0.44260 
C          C       0.30431   0.67957   0.01029 
C          C       0.32043   0.62474   0.01029 
C          C       0.37526   0.69569   0.01029 
C          C       0.34627   0.70886   0.01042 
C          C       0.29114   0.63741   0.01042 
C          C       0.36259   0.65373   0.01042 
C          C       0.35912   0.75291   0.00889 
C          C       0.24709   0.60621   0.00889 
C          C       0.39379   0.64088   0.00889 
H          H       0.28195   0.68972   0.00953 
H          H       0.31028   0.59223   0.00953 
H          H       0.40777   0.71805   0.00953 
C          C       0.41331   0.82428   0.02727 
C          C       0.17572   0.58903   0.02727 
C          C       0.41097   0.58669   0.02727 
C          C       0.41085   0.88486   0.05967 
C          C       0.11514   0.52599   0.05967 
C          C       0.47401   0.58915   0.05967 
C          C       0.44757   0.91038   0.02465 
C          C       0.08962   0.53719   0.02465 
C          C       0.46281   0.55243   0.02465 
C          C       0.46742   0.89225   0.10651 
C          C       0.10775   0.57517   0.10651 
C          C       0.42483   0.53258   0.10651 
C          C       0.45063   0.84968   0.10658 
C          C       0.15032   0.60095   0.10658 
C          C       0.39905   0.54937   0.10658 
C          C       0.46694   0.95594   0.01956 
C          C       0.04406   0.51100   0.01956 
C          C       0.48900   0.53306   0.01956 
C          C       0.50766   0.97912   0.46770 
C          C       0.02088   0.52854   0.46770 
C          C       0.47146   0.49234   0.46770 
C          C       0.46866   0.02223   0.06421 
C          C       0.97777   0.44643   0.06421 
C          C       0.55357   0.53134   0.06421 
H          H       0.36560   0.82369   0.37406 
H          H       0.17631   0.54191   0.37406 
H          H       0.45809   0.63440   0.37406 
H          H       0.33580   0.76156   0.49536 
H          H       0.23844   0.57424   0.49536 
H          H       0.42576   0.66420   0.49536 
H          H       0.39537   0.89788   0.37323 
H          H       0.10212   0.49749   0.37323 
H          H       0.50251   0.60463   0.37323 
H          H       0.49615   0.91112   0.16950 
H          H       0.08888   0.58503   0.16950 
H          H       0.41497   0.50385   0.16950 
H          H       0.46649   0.83639   0.17044 
H          H       0.16361   0.63010   0.17044 
H          H       0.36990   0.53351   0.17044 
N          N       0.53406   0.96492   0.41110 
N          N       0.03508   0.56914   0.41110 
N          N       0.43086   0.46594   0.41110 
C          C       0.40271   0.95585   0.12865 
C          C       0.04415   0.44686   0.12865 
C          C       0.55314   0.59729   0.12865 
H          H       0.46556   0.07826   0.11812 
H          H       0.92174   0.38730   0.11812 
H          H       0.61270   0.53444   0.11812 
H          H       0.38829   0.92222   0.13173 
H          H       0.07778   0.46607   0.13173 
H          H       0.53393   0.61171   0.13173 
H          H       0.38342   0.96318   0.04798 
H          H       0.03682   0.42024   0.04798 
H          H       0.57976   0.61658   0.04798 
N          N       0.39737   0.78072   0.02952 
N          N       0.21928   0.61665   0.02952 
N          N       0.38335   0.60263   0.02952 
C          C       0.60105   0.15068   0.09013 
C          C       0.84932   0.45037   0.09013 
C          C       0.54963   0.39895   0.09013 
C          C       0.67957   0.30430   0.48623 
C          C       0.69570   0.37527   0.48623 
C          C       0.62473   0.32043   0.48623 
C          C       0.63741   0.29115   0.48646 
C          C       0.70885   0.34626   0.48646 
C          C       0.65374   0.36259   0.48646 
C          C       0.60620   0.24710   0.48619 
C          C       0.75290   0.35910   0.48619 
C          C       0.64090   0.39380   0.48619 
H          H       0.68971   0.28194   0.48579 
H          H       0.71806   0.40777   0.48579 
H          H       0.59223   0.31029   0.48579 
C          C       0.58901   0.17578   0.00916 
C          C       0.82422   0.41323   0.00916 
C          C       0.58677   0.41099   0.00916 
C          C       0.57521   0.10814   0.09344 
C          C       0.89186   0.46707   0.09344 
C          C       0.53293   0.42479   0.09344 
C          C       0.53693   0.08970   0.01333 
C          C       0.91030   0.44723   0.01333 
C          C       0.55277   0.46307   0.01333 
C          C       0.52562   0.11489   0.42716 
C          C       0.88511   0.41073   0.42716 
C          C       0.58927   0.47438   0.42716 
C          C       0.55110   0.15751   0.42607 
C          C       0.84249   0.39359   0.42607 
C          C       0.60641   0.44890   0.42607 
C          C       0.51063   0.04411   0.01195 
C          C       0.95589   0.46652   0.01195 
C          C       0.53348   0.48937   0.01195 
C          C       0.52822   0.02079   0.46270 
C          C       0.97921   0.50743   0.46270 
C          C       0.49257   0.47178   0.46270 
C          C       0.44674   0.97801   0.06787 
C          C       0.02199   0.46873   0.06787 
C          C       0.53127   0.55326   0.06787 
H          H       0.63035   0.16423   0.15300 
H          H       0.83577   0.46612   0.15300 
H          H       0.53388   0.36965   0.15300 
H          H       0.57423   0.23843   0.47273 
H          H       0.76157   0.33580   0.47273 
H          H       0.66420   0.42577   0.47273 
H          H       0.58517   0.08959   0.15882 
H          H       0.91041   0.49558   0.15882 
H          H       0.50442   0.41483   0.15882 
H          H       0.49697   0.10165   0.36120 
H          H       0.89835   0.39532   0.36120 
H          H       0.60468   0.50303   0.36120 
H          H       0.54153   0.17578   0.35631 
H          H       0.82422   0.36575   0.35631 
H          H       0.63425   0.45847   0.35631 
N          N       0.56858   0.03539   0.40079 
N          N       0.96461   0.53319   0.40079 
N          N       0.46681   0.43142   0.40079 
C          C       0.44667   0.04460   0.12090 
C          C       0.95540   0.40207   0.12090 
C          C       0.59793   0.55333   0.12090 
H          H       0.40137   0.96553   0.25639 
H          H       0.03447   0.43584   0.25639 
H          H       0.56416   0.59863   0.25639 
Li         Li      0.09069   0.61607   0.39815 
Li         Li      0.38393   0.47462   0.39815 
Li         Li      0.52538   0.90931   0.39815 
H          H       0.43633   0.03620   0.25012 
H          H       0.96380   0.40013   0.25012 
H          H       0.59987   0.56367   0.25012 
H          H       0.41956   0.03609   0.04147 
H          H       0.96391   0.38347   0.04147 
H          H       0.61653   0.58044   0.04147 
N          N       0.61663   0.21933   0.00878 
N          N       0.78067   0.39730   0.00878 
N          N       0.60270   0.38337   0.00878 
C          C       0.57065   0.00248   0.37226 
C          C       0.99752   0.56817   0.37226 
C          C       0.43183   0.42935   0.37226 
H          H       0.60058   0.00123   0.31766 
H          H       0.40519   0.40046   0.32982 
H          H       0.99413   0.59560   0.32858 
C          C       0.39359   0.84223   0.94260 
C          C       0.15777   0.55136   0.94260 
C          C       0.44864   0.60641   0.94260 
C          C       0.30431   0.67957   0.51029 
C          C       0.32043   0.62474   0.51029 
C          C       0.37526   0.69569   0.51029 
C          C       0.34627   0.70886   0.51042 
C          C       0.29114   0.63741   0.51042 
C          C       0.36259   0.65373   0.51042 
C          C       0.35912   0.75291   0.50889 
C          C       0.24709   0.60621   0.50889 
C          C       0.39379   0.64088   0.50889 
H          H       0.28195   0.68972   0.50953 
H          H       0.31028   0.59223   0.50953 
H          H       0.40777   0.71805   0.50953 
C          C       0.41331   0.82428   0.52726 
C          C       0.17572   0.58903   0.52726 
C          C       0.41097   0.58669   0.52726 
C          C       0.41085   0.88486   0.55967 
C          C       0.11514   0.52599   0.55967 
C          C       0.47401   0.58915   0.55967 
C          C       0.44757   0.91038   0.52465 
C          C       0.08962   0.53719   0.52465 
C          C       0.46281   0.55243   0.52465 
C          C       0.46742   0.89225   0.60651 
C          C       0.10775   0.57517   0.60651 
C          C       0.42483   0.53258   0.60651 
C          C       0.45063   0.84968   0.60659 
C          C       0.15032   0.60095   0.60659 
C          C       0.39905   0.54937   0.60659 
C          C       0.46694   0.95594   0.51956 
C          C       0.04406   0.51100   0.51956 
C          C       0.48900   0.53306   0.51956 
C          C       0.50766   0.97912   0.96770 
C          C       0.02088   0.52854   0.96770 
C          C       0.47146   0.49234   0.96770 
C          C       0.46866   0.02223   0.56421 
C          C       0.97777   0.44643   0.56421 
C          C       0.55357   0.53134   0.56421 
H          H       0.36560   0.82369   0.87406 
H          H       0.17631   0.54191   0.87406 
H          H       0.45809   0.63440   0.87406 
H          H       0.33580   0.76156   0.99536 
H          H       0.23844   0.57424   0.99536 
H          H       0.42576   0.66420   0.99536 
H          H       0.39537   0.89788   0.87323 
H          H       0.10212   0.49749   0.87323 
H          H       0.50251   0.60463   0.87323 
H          H       0.49615   0.91112   0.66950 
H          H       0.08888   0.58503   0.66950 
H          H       0.41497   0.50385   0.66950 
H          H       0.46649   0.83639   0.67044 
H          H       0.16361   0.63010   0.67044 
H          H       0.36990   0.53351   0.67044 
N          N       0.53406   0.96492   0.91110 
N          N       0.03508   0.56914   0.91110 
N          N       0.43086   0.46594   0.91110 
C          C       0.40271   0.95585   0.62865 
C          C       0.04415   0.44686   0.62865 
C          C       0.55314   0.59729   0.62865 
H          H       0.46556   0.07826   0.61812 
H          H       0.92174   0.38730   0.61812 
H          H       0.61270   0.53444   0.61812 
H          H       0.38829   0.92222   0.63173 
H          H       0.07778   0.46607   0.63173 
H          H       0.53393   0.61171   0.63173 
H          H       0.38342   0.96318   0.54798 
H          H       0.03682   0.42024   0.54798 
H          H       0.57976   0.61658   0.54798 
N          N       0.39737   0.78072   0.52953 
N          N       0.21928   0.61665   0.52953 
N          N       0.38335   0.60263   0.52953 
C          C       0.60105   0.15068   0.59013 
C          C       0.84932   0.45037   0.59013 
C          C       0.54963   0.39895   0.59013 
C          C       0.67957   0.30430   0.98624 
C          C       0.69570   0.37527   0.98624 
C          C       0.62473   0.32043   0.98624 
C          C       0.63741   0.29115   0.98646 
C          C       0.70885   0.34626   0.98646 
C          C       0.65374   0.36259   0.98646 
C          C       0.60620   0.24710   0.98619 
C          C       0.75290   0.35910   0.98619 
C          C       0.64090   0.39380   0.98619 
H          H       0.68971   0.28194   0.98579 
H          H       0.71806   0.40777   0.98579 
H          H       0.59223   0.31029   0.98579 
C          C       0.58901   0.17578   0.50916 
C          C       0.82422   0.41323   0.50916 
C          C       0.58677   0.41099   0.50916 
C          C       0.57521   0.10814   0.59343 
C          C       0.89186   0.46707   0.59343 
C          C       0.53293   0.42479   0.59343 
C          C       0.53693   0.08970   0.51333 
C          C       0.91030   0.44723   0.51333 
C          C       0.55277   0.46307   0.51333 
C          C       0.52562   0.11489   0.92716 
C          C       0.88511   0.41073   0.92716 
C          C       0.58927   0.47438   0.92716 
C          C       0.55110   0.15751   0.92608 
C          C       0.84249   0.39359   0.92608 
C          C       0.60641   0.44890   0.92608 
C          C       0.51063   0.04411   0.51195 
C          C       0.95589   0.46652   0.51195 
C          C       0.53348   0.48937   0.51195 
C          C       0.52822   0.02079   0.96270 
C          C       0.97921   0.50743   0.96270 
C          C       0.49257   0.47178   0.96270 
C          C       0.44674   0.97801   0.56787 
C          C       0.02199   0.46873   0.56787 
C          C       0.53127   0.55326   0.56787 
H          H       0.63035   0.16423   0.65300 
H          H       0.83577   0.46612   0.65300 
H          H       0.53388   0.36965   0.65300 
H          H       0.57423   0.23843   0.97273 
H          H       0.76157   0.33580   0.97273 
H          H       0.66420   0.42577   0.97273 
H          H       0.58517   0.08959   0.65882 
H          H       0.91041   0.49558   0.65882 
H          H       0.50442   0.41483   0.65882 
H          H       0.49697   0.10165   0.86120 
H          H       0.89835   0.39532   0.86120 
H          H       0.60468   0.50303   0.86120 
H          H       0.54153   0.17578   0.85631 
H          H       0.82422   0.36575   0.85631 
H          H       0.63425   0.45847   0.85631 
N          N       0.56858   0.03539   0.90079 
N          N       0.96461   0.53319   0.90079 
N          N       0.46681   0.43142   0.90079 
C          C       0.44667   0.04460   0.62090 
C          C       0.95540   0.40207   0.62090 
C          C       0.59793   0.55333   0.62090 
H          H       0.40137   0.96553   0.75639 
H          H       0.03447   0.43584   0.75639 
H          H       0.56416   0.59863   0.75639 
Li         Li      0.09069   0.61607   0.89815 
Li         Li      0.38393   0.47462   0.89815 
Li         Li      0.52538   0.90931   0.89815 
H          H       0.43633   0.03620   0.75012 
H          H       0.96380   0.40013   0.75012 
H          H       0.59987   0.56367   0.75012 
H          H       0.41956   0.03609   0.54146 
H          H       0.96391   0.38347   0.54146 
H          H       0.61653   0.58044   0.54146 
N          N       0.61663   0.21933   0.50879 
N          N       0.78067   0.39730   0.50879 
N          N       0.60270   0.38337   0.50879 
C          C       0.57065   0.00248   0.87226 
C          C       0.99752   0.56817   0.87226 
C          C       0.43183   0.42935   0.87226 
H          H       0.60058   0.00123   0.81766 
H          H       0.40519   0.40046   0.82983 
H          H       0.99413   0.59560   0.82857 
