data_crystal

_cell_length_a    37.62940
_cell_length_b    37.62940
_cell_length_c    8.16140
_cell_angle_alpha 90.00000
_cell_angle_beta  90.00000
_cell_angle_gamma 120.00000

_space_group_name_Hall 'P 1'
_space_group_name_H-M_alt  'P 1'

loop_
_symmetry_equiv_pos_as_xyz
'x,y,z' 

loop_
_atom_site_label
_atom_site_type_symbol
_atom_site_fract_x
_atom_site_fract_y
_atom_site_fract_z
C          C       0.39649   0.84294   0.12708 
C          C       0.15706   0.55355   0.12708 
C          C       0.44645   0.60351   0.12708 
C          C       0.30482   0.68020   0.18630 
C          C       0.31980   0.62462   0.18630 
C          C       0.37538   0.69518   0.18630 
C          C       0.34690   0.70898   0.18655 
C          C       0.29102   0.63792   0.18655 
C          C       0.36208   0.65310   0.18655 
C          C       0.36042   0.75317   0.18646 
C          C       0.24683   0.60725   0.18646 
C          C       0.39275   0.63958   0.18646 
H          H       0.28285   0.69083   0.18588 
H          H       0.30917   0.59202   0.18588 
H          H       0.40798   0.71715   0.18588 
C          C       0.41520   0.82407   0.21180 
C          C       0.17593   0.59113   0.21180 
C          C       0.40887   0.58480   0.21180 
C          C       0.41423   0.88561   0.12866 
C          C       0.11439   0.52862   0.12866 
C          C       0.47138   0.58577   0.12866 
C          C       0.45039   0.91027   0.21703 
C          C       0.08973   0.54012   0.21703 
C          C       0.45988   0.54961   0.21703 
C          C       0.46918   0.89121   0.29927 
C          C       0.10879   0.57797   0.29927 
C          C       0.42203   0.53082   0.29927 
C          C       0.45199   0.84863   0.29517 
C          C       0.15137   0.60336   0.29517 
C          C       0.39664   0.54801   0.29517 
C          C       0.46998   0.95590   0.21735 
C          C       0.04410   0.51408   0.21735 
C          C       0.48592   0.53002   0.21735 
C          C       0.51107   0.97956   0.17013 
C          C       0.02044   0.53151   0.17013 
C          C       0.46849   0.48893   0.17013 
C          C       0.47135   0.02181   0.26797 
C          C       0.97819   0.44954   0.26797 
C          C       0.55046   0.52865   0.26797 
H          H       0.36892   0.82509   0.05577 
H          H       0.17491   0.54383   0.05577 
H          H       0.45617   0.63108   0.05577 
H          H       0.33755   0.76236   0.17182 
H          H       0.23764   0.57519   0.17182 
H          H       0.42481   0.66245   0.17182 
H          H       0.39949   0.89932   0.06181 
H          H       0.10068   0.50017   0.06181 
H          H       0.49983   0.60051   0.06181 
H          H       0.49737   0.90935   0.36597 
H          H       0.09065   0.58802   0.36597 
H          H       0.41198   0.50263   0.36597 
H          H       0.46707   0.83463   0.35940 
H          H       0.16537   0.63244   0.35940 
H          H       0.36756   0.53293   0.35940 
N          N       0.53806   0.96632   0.11171 
N          N       0.03368   0.57174   0.11171 
N          N       0.42826   0.46194   0.11171 
C          C       0.40502   0.95508   0.32138 
C          C       0.04492   0.44994   0.32138 
C          C       0.55006   0.59498   0.32138 
H          H       0.46814   0.07742   0.32853 
H          H       0.92258   0.39072   0.32853 
H          H       0.60928   0.53186   0.32853 
H          H       0.39046   0.92145   0.32020 
H          H       0.07855   0.46901   0.32020 
H          H       0.53099   0.60954   0.32020 
H          H       0.38642   0.96317   0.24065 
H          H       0.03683   0.42325   0.24065 
H          H       0.57675   0.61358   0.24065 
N          N       0.39867   0.78044   0.21090 
N          N       0.21956   0.61823   0.21090 
N          N       0.38177   0.60133   0.21090 
C          C       0.60283   0.15098   0.30138 
C          C       0.84902   0.45185   0.30138 
C          C       0.54815   0.39717   0.30138 
C          C       0.68002   0.30467   0.19969 
C          C       0.69533   0.37535   0.19969 
C          C       0.62465   0.31998   0.19969 
C          C       0.63778   0.29106   0.19987 
C          C       0.70894   0.34672   0.19987 
C          C       0.65328   0.36222   0.19987 
C          C       0.60695   0.24691   0.19911 
C          C       0.75309   0.36004   0.19911 
C          C       0.63996   0.39305   0.19911 
H          H       0.69051   0.28259   0.19911 
H          H       0.71741   0.40792   0.19911 
H          H       0.59208   0.30949   0.19911 
C          C       0.59056   0.17585   0.22071 
C          C       0.82415   0.41471   0.22071 
C          C       0.58529   0.40944   0.22071 
C          C       0.57741   0.10838   0.30338 
C          C       0.89162   0.46903   0.30338 
C          C       0.53097   0.42259   0.30338 
C          C       0.53934   0.08970   0.22234 
C          C       0.91030   0.44964   0.22234 
C          C       0.55036   0.46066   0.22234 
C          C       0.52780   0.11469   0.13667 
C          C       0.88531   0.41311   0.13667 
C          C       0.58689   0.47220   0.13667 
C          C       0.55286   0.15734   0.13678 
C          C       0.84266   0.39552   0.13678 
C          C       0.60448   0.44714   0.13678 
C          C       0.51349   0.04411   0.21919 
C          C       0.95589   0.46938   0.21919 
C          C       0.53062   0.48651   0.21919 
C          C       0.53154   0.02129   0.16965 
C          C       0.97871   0.51025   0.16965 
C          C       0.48975   0.46846   0.16965 
C          C       0.44947   0.97761   0.26621 
C          C       0.02239   0.47186   0.26621 
C          C       0.52814   0.55053   0.26621 
H          H       0.63199   0.16472   0.36488 
H          H       0.83528   0.46727   0.36488 
H          H       0.53273   0.36801   0.36488 
H          H       0.57491   0.23789   0.18532 
H          H       0.76211   0.33702   0.18532 
H          H       0.66298   0.42509   0.18532 
H          H       0.58754   0.08999   0.36833 
H          H       0.91001   0.49755   0.36833 
H          H       0.50245   0.41246   0.36833 
H          H       0.49927   0.10122   0.07018 
H          H       0.89878   0.39805   0.07018 
H          H       0.60195   0.50073   0.07018 
H          H       0.54315   0.17546   0.06732 
H          H       0.82454   0.36769   0.06732 
H          H       0.63231   0.45685   0.06732 
N          N       0.57222   0.03660   0.10996 
N          N       0.96340   0.53562   0.10996 
N          N       0.46438   0.42778   0.10996 
C          C       0.44915   0.04377   0.32668 
C          C       0.95623   0.40538   0.32668 
C          C       0.59462   0.55085   0.32668 
H          H       0.40279   0.96375   0.44904 
H          H       0.03625   0.43904   0.44904 
H          H       0.56096   0.59721   0.44904 
H          H       0.53360   0.93674   0.10196 
H          H       0.06326   0.59686   0.10196 
H          H       0.40314   0.46640   0.10196 
H          H       0.43821   0.03435   0.45385 
H          H       0.96565   0.40386   0.45385 
H          H       0.59614   0.56179   0.45385 
H          H       0.42250   0.03603   0.24623 
H          H       0.96397   0.38647   0.24623 
H          H       0.61353   0.57750   0.24623 
N          N       0.61779   0.21946   0.22132 
N          N       0.78054   0.39833   0.22132 
N          N       0.60167   0.38221   0.22132 
C          C       0.57471   0.00412   0.07770 
C          C       0.99588   0.57059   0.07770 
C          C       0.42941   0.42529   0.07770 
C          C       0.61247   0.00614   0.00996 
C          C       0.99386   0.60633   0.00996 
C          C       0.39367   0.38753   0.00996 
H          H       0.63666   0.03849   0.48857 
H          H       0.96151   0.59817   0.48857 
H          H       0.40183   0.36334   0.48857 
H          H       0.60497   0.98918   0.39232 
H          H       0.01082   0.61579   0.39232 
H          H       0.38421   0.39503   0.39232 
H          H       0.62411   0.99175   0.09732 
H          H       0.00825   0.63236   0.09732 
H          H       0.36764   0.37589   0.09732 
C          C       0.39649   0.84294   0.62708 
C          C       0.15706   0.55355   0.62708 
C          C       0.44645   0.60351   0.62708 
C          C       0.30482   0.68020   0.68631 
C          C       0.31980   0.62462   0.68631 
C          C       0.37538   0.69518   0.68631 
C          C       0.34690   0.70898   0.68655 
C          C       0.29102   0.63792   0.68655 
C          C       0.36208   0.65310   0.68655 
C          C       0.36042   0.75317   0.68646 
C          C       0.24683   0.60725   0.68646 
C          C       0.39275   0.63958   0.68646 
H          H       0.28285   0.69083   0.68589 
H          H       0.30917   0.59202   0.68589 
H          H       0.40798   0.71715   0.68589 
C          C       0.41520   0.82407   0.71181 
C          C       0.17593   0.59113   0.71181 
C          C       0.40887   0.58480   0.71181 
C          C       0.41423   0.88561   0.62865 
C          C       0.11439   0.52862   0.62865 
C          C       0.47138   0.58577   0.62865 
C          C       0.45039   0.91027   0.71703 
C          C       0.08973   0.54012   0.71703 
C          C       0.45988   0.54961   0.71703 
C          C       0.46918   0.89121   0.79927 
C          C       0.10879   0.57797   0.79927 
C          C       0.42203   0.53082   0.79927 
C          C       0.45199   0.84863   0.79517 
C          C       0.15137   0.60336   0.79517 
C          C       0.39664   0.54801   0.79517 
C          C       0.46998   0.95590   0.71735 
C          C       0.04410   0.51408   0.71735 
C          C       0.48592   0.53002   0.71735 
C          C       0.51107   0.97956   0.67013 
C          C       0.02044   0.53151   0.67013 
C          C       0.46849   0.48893   0.67013 
C          C       0.47135   0.02181   0.76797 
C          C       0.97819   0.44954   0.76797 
C          C       0.55046   0.52865   0.76797 
H          H       0.36892   0.82509   0.55576 
H          H       0.17491   0.54383   0.55576 
H          H       0.45617   0.63108   0.55576 
H          H       0.33755   0.76236   0.67182 
H          H       0.23764   0.57519   0.67182 
H          H       0.42481   0.66245   0.67182 
H          H       0.39949   0.89932   0.56181 
H          H       0.10068   0.50017   0.56181 
H          H       0.49983   0.60051   0.56181 
H          H       0.49737   0.90935   0.86597 
H          H       0.09065   0.58802   0.86597 
H          H       0.41198   0.50263   0.86597 
H          H       0.46707   0.83463   0.85940 
H          H       0.16537   0.63244   0.85940 
H          H       0.36756   0.53293   0.85940 
N          N       0.53806   0.96632   0.61171 
N          N       0.03368   0.57174   0.61171 
N          N       0.42826   0.46194   0.61171 
C          C       0.40502   0.95508   0.82138 
C          C       0.04492   0.44994   0.82138 
C          C       0.55006   0.59498   0.82138 
H          H       0.46814   0.07742   0.82853 
H          H       0.92258   0.39072   0.82853 
H          H       0.60928   0.53186   0.82853 
H          H       0.39046   0.92145   0.82020 
H          H       0.07855   0.46901   0.82020 
H          H       0.53099   0.60954   0.82020 
H          H       0.38642   0.96317   0.74065 
H          H       0.03683   0.42325   0.74065 
H          H       0.57675   0.61358   0.74065 
N          N       0.39867   0.78044   0.71090 
N          N       0.21956   0.61823   0.71090 
N          N       0.38177   0.60133   0.71090 
C          C       0.60283   0.15098   0.80138 
C          C       0.84902   0.45185   0.80138 
C          C       0.54815   0.39717   0.80138 
C          C       0.68002   0.30467   0.69969 
C          C       0.69533   0.37535   0.69969 
C          C       0.62465   0.31998   0.69969 
C          C       0.63778   0.29106   0.69987 
C          C       0.70894   0.34672   0.69987 
C          C       0.65328   0.36222   0.69987 
C          C       0.60695   0.24691   0.69911 
C          C       0.75309   0.36004   0.69911 
C          C       0.63996   0.39305   0.69911 
H          H       0.69051   0.28259   0.69911 
H          H       0.71741   0.40792   0.69911 
H          H       0.59208   0.30949   0.69911 
C          C       0.59056   0.17585   0.72071 
C          C       0.82415   0.41471   0.72071 
C          C       0.58529   0.40944   0.72071 
C          C       0.57741   0.10838   0.80338 
C          C       0.89162   0.46903   0.80338 
C          C       0.53097   0.42259   0.80338 
C          C       0.53934   0.08970   0.72235 
C          C       0.91030   0.44964   0.72235 
C          C       0.55036   0.46066   0.72235 
C          C       0.52780   0.11469   0.63667 
C          C       0.88531   0.41311   0.63667 
C          C       0.58689   0.47220   0.63667 
C          C       0.55286   0.15734   0.63678 
C          C       0.84266   0.39552   0.63678 
C          C       0.60448   0.44714   0.63678 
C          C       0.51349   0.04411   0.71919 
C          C       0.95589   0.46938   0.71919 
C          C       0.53062   0.48651   0.71919 
C          C       0.53154   0.02129   0.66965 
C          C       0.97871   0.51025   0.66965 
C          C       0.48975   0.46846   0.66965 
C          C       0.44947   0.97761   0.76621 
C          C       0.02239   0.47186   0.76621 
C          C       0.52814   0.55053   0.76621 
H          H       0.63199   0.16472   0.86488 
H          H       0.83528   0.46727   0.86488 
H          H       0.53273   0.36801   0.86488 
H          H       0.57491   0.23789   0.68532 
H          H       0.76211   0.33702   0.68532 
H          H       0.66298   0.42509   0.68532 
H          H       0.58754   0.08999   0.86833 
H          H       0.91001   0.49755   0.86833 
H          H       0.50245   0.41246   0.86833 
H          H       0.49927   0.10122   0.57018 
H          H       0.89878   0.39805   0.57018 
H          H       0.60195   0.50073   0.57018 
H          H       0.54315   0.17546   0.56732 
H          H       0.82454   0.36769   0.56732 
H          H       0.63231   0.45685   0.56732 
N          N       0.57222   0.03660   0.60996 
N          N       0.96340   0.53562   0.60996 
N          N       0.46438   0.42778   0.60996 
C          C       0.44915   0.04377   0.82668 
C          C       0.95623   0.40538   0.82668 
C          C       0.59462   0.55085   0.82668 
H          H       0.40279   0.96375   0.94904 
H          H       0.03625   0.43904   0.94904 
H          H       0.56096   0.59721   0.94904 
H          H       0.53360   0.93674   0.60196 
H          H       0.06326   0.59686   0.60196 
H          H       0.40314   0.46640   0.60196 
H          H       0.43821   0.03435   0.95385 
H          H       0.96565   0.40386   0.95385 
H          H       0.59614   0.56179   0.95385 
H          H       0.42250   0.03603   0.74623 
H          H       0.96397   0.38647   0.74623 
H          H       0.61353   0.57750   0.74623 
N          N       0.61779   0.21946   0.72132 
N          N       0.78054   0.39833   0.72132 
N          N       0.60167   0.38221   0.72132 
C          C       0.57471   0.00412   0.57770 
C          C       0.99588   0.57059   0.57770 
C          C       0.42941   0.42529   0.57770 
C          C       0.61247   0.00614   0.50996 
C          C       0.99386   0.60633   0.50996 
C          C       0.39367   0.38753   0.50996 
H          H       0.63666   0.03849   0.98857 
H          H       0.96151   0.59817   0.98857 
H          H       0.40183   0.36334   0.98857 
H          H       0.60497   0.98918   0.89232 
H          H       0.01082   0.61579   0.89232 
H          H       0.38421   0.39503   0.89232 
H          H       0.62411   0.99175   0.59732 
H          H       0.00825   0.63236   0.59732 
H          H       0.36764   0.37589   0.59732 
