data_crystal
 
_cell_length_a    43.77890
_cell_length_b    43.77890
_cell_length_c    8.12060
_cell_angle_alpha 90.00000
_cell_angle_beta  90.00000
_cell_angle_gamma 120.00000
 
_symmetry_space_group_name_Hall 'P 1'
_symmetry_space_group_name_H-M  'P 1'
 
loop_
_symmetry_equiv_pos_as_xyz
 'x,y,z' 
 
loop_
_atom_site_label
_atom_site_type_symbol
_atom_site_fract_x
_atom_site_fract_y
_atom_site_fract_z
_atom_site_charge
C          C       0.32022   0.68798   0.25000   0.0000000000
C          C       0.31202   0.63224   0.25000   0.0000000000
C          C       0.36776   0.67978   0.25000   0.0000000000
C          C       0.67978   0.31202   0.25000   0.0000000000
C          C       0.68798   0.36776   0.25000   0.0000000000
C          C       0.63224   0.32022   0.25000   0.0000000000
C          C       0.35481   0.70135   0.25000   0.0000000000
C          C       0.29865   0.65346   0.25000   0.0000000000
C          C       0.34654   0.64519   0.25000   0.0000000000
C          C       0.64519   0.29865   0.25000   0.0000000000
C          C       0.70135   0.34654   0.25000   0.0000000000
C          C       0.65346   0.35481   0.25000   0.0000000000
C          C       0.37825   0.73921   0.25000   0.0000000000
C          C       0.26079   0.63904   0.25000   0.0000000000
C          C       0.36096   0.62175   0.25000   0.0000000000
C          C       0.62175   0.26079   0.25000   0.0000000000
C          C       0.73921   0.36096   0.25000   0.0000000000
C          C       0.63904   0.37825   0.25000   0.0000000000
C          C       0.36496   0.76174   0.25000   0.0000000000
C          C       0.23826   0.60322   0.25000   0.0000000000
C          C       0.39678   0.63504   0.25000   0.0000000000
C          C       0.63504   0.23826   0.25000   0.0000000000
C          C       0.76174   0.39678   0.25000   0.0000000000
C          C       0.60322   0.36496   0.25000   0.0000000000
C          C       0.38706   0.79738   0.25000   0.0000000000
C          C       0.20262   0.58968   0.25000   0.0000000000
C          C       0.41032   0.61294   0.25000   0.0000000000
C          C       0.61294   0.20262   0.25000   0.0000000000
C          C       0.79738   0.41032   0.25000   0.0000000000
C          C       0.58968   0.38706   0.25000   0.0000000000
C          C       0.42290   0.81125   0.25000   0.0000000000
C          C       0.18875   0.61165   0.25000   0.0000000000
C          C       0.38835   0.57710   0.25000   0.0000000000
C          C       0.57710   0.18875   0.25000   0.0000000000
C          C       0.81125   0.38835   0.25000   0.0000000000
C          C       0.61165   0.42290   0.25000   0.0000000000
C          C       0.43624   0.78887   0.25000   0.0000000000
C          C       0.21113   0.64737   0.25000   0.0000000000
C          C       0.35263   0.56376   0.25000   0.0000000000
C          C       0.56376   0.21113   0.25000   0.0000000000
C          C       0.78887   0.35263   0.25000   0.0000000000
C          C       0.64737   0.43624   0.25000   0.0000000000
C          C       0.41417   0.75323   0.25000   0.0000000000
C          C       0.24677   0.66094   0.25000   0.0000000000
C          C       0.33906   0.58583   0.25000   0.0000000000
C          C       0.58583   0.24677   0.25000   0.0000000000
C          C       0.75323   0.33906   0.25000   0.0000000000
C          C       0.66094   0.41417   0.25000   0.0000000000
C          C       0.44667   0.84881   0.25000   0.0000000000
C          C       0.15119   0.59786   0.25000   0.0000000000
C          C       0.40214   0.55333   0.25000   0.0000000000
C          C       0.55333   0.15119   0.25000   0.0000000000
C          C       0.84881   0.40214   0.25000   0.0000000000
C          C       0.59786   0.44667   0.25000   0.0000000000
N          N       0.43488   0.87005   0.25000   0.0000000000
N          N       0.12995   0.56483   0.25000   0.0000000000
N          N       0.43517   0.56512   0.25000   0.0000000000
N          N       0.56512   0.12995   0.25000   0.0000000000
N          N       0.87005   0.43517   0.25000   0.0000000000
N          N       0.56483   0.43488   0.25000   0.0000000000
C          C       0.45454   0.90703   0.25000   0.0000000000
C          C       0.09297   0.54751   0.25000   0.0000000000
C          C       0.45249   0.54546   0.25000   0.0000000000
C          C       0.54546   0.09297   0.25000   0.0000000000
C          C       0.90703   0.45249   0.25000   0.0000000000
C          C       0.54751   0.45454   0.25000   0.0000000000
C          C       0.49064   0.92578   0.25000   0.0000000000
C          C       0.07422   0.56486   0.25000   0.0000000000
C          C       0.43514   0.50936   0.25000   0.0000000000
C          C       0.50936   0.07422   0.25000   0.0000000000
C          C       0.92578   0.43514   0.25000   0.0000000000
C          C       0.56486   0.49064   0.25000   0.0000000000
C          C       0.50825   0.96178   0.25000   0.0000000000
C          C       0.03822   0.54647   0.25000   0.0000000000
C          C       0.45353   0.49175   0.25000   0.0000000000
C          C       0.49175   0.03822   0.25000   0.0000000000
C          C       0.96178   0.45353   0.25000   0.0000000000
C          C       0.54647   0.50825   0.25000   0.0000000000
C          C       0.49047   0.98047   0.25000   0.0000000000
C          C       0.01953   0.51000   0.25000   0.0000000000
C          C       0.49000   0.50953   0.25000   0.0000000000
C          C       0.50953   0.01953   0.25000   0.0000000000
C          C       0.98047   0.49000   0.25000   0.0000000000
C          C       0.51000   0.49047   0.25000   0.0000000000
C          C       0.45404   0.96092   0.25000   0.0000000000
C          C       0.03908   0.49312   0.25000   0.0000000000
C          C       0.50688   0.54596   0.25000   0.0000000000
C          C       0.54596   0.03908   0.25000   0.0000000000
C          C       0.96092   0.50688   0.25000   0.0000000000
C          C       0.49312   0.45404   0.25000   0.0000000000
C          C       0.43663   0.92496   0.25000   0.0000000000
C          C       0.07504   0.51167   0.25000   0.0000000000
C          C       0.48833   0.56337   0.25000   0.0000000000
C          C       0.56337   0.07504   0.25000   0.0000000000
C          C       0.92496   0.48833   0.25000   0.0000000000
C          C       0.51167   0.43663   0.25000   0.0000000000
H          H       0.33743   0.75173   0.25000   0.0000000000
H          H       0.24827   0.58570   0.25000   0.0000000000
H          H       0.41430   0.66257   0.25000   0.0000000000
H          H       0.66257   0.24827   0.25000   0.0000000000
H          H       0.75173   0.41430   0.25000   0.0000000000
H          H       0.58570   0.33743   0.25000   0.0000000000
H          H       0.37624   0.81421   0.25000   0.0000000000
H          H       0.18579   0.56203   0.25000   0.0000000000
H          H       0.43797   0.62376   0.25000   0.0000000000
H          H       0.62376   0.18579   0.25000   0.0000000000
H          H       0.81421   0.43797   0.25000   0.0000000000
H          H       0.56203   0.37624   0.25000   0.0000000000
H          H       0.46379   0.79901   0.25000   0.0000000000
H          H       0.20099   0.66478   0.25000   0.0000000000
H          H       0.33522   0.53621   0.25000   0.0000000000
H          H       0.53621   0.20099   0.25000   0.0000000000
H          H       0.79901   0.33522   0.25000   0.0000000000
H          H       0.66478   0.46379   0.25000   0.0000000000
H          H       0.42517   0.73655   0.25000   0.0000000000
H          H       0.26345   0.68862   0.25000   0.0000000000
H          H       0.31138   0.57483   0.25000   0.0000000000
H          H       0.57483   0.26345   0.25000   0.0000000000
H          H       0.73655   0.31138   0.25000   0.0000000000
H          H       0.68862   0.42517   0.25000   0.0000000000
H          H       0.47396   0.85798   0.25000   0.0000000000
H          H       0.14202   0.61598   0.25000   0.0000000000
H          H       0.38402   0.52604   0.25000   0.0000000000
H          H       0.52604   0.14202   0.25000   0.0000000000
H          H       0.85798   0.38402   0.25000   0.0000000000
H          H       0.61598   0.47396   0.25000   0.0000000000
H          H       0.50568   0.91311   0.25000   0.0000000000
H          H       0.08689   0.59257   0.25000   0.0000000000
H          H       0.40743   0.49432   0.25000   0.0000000000
H          H       0.49432   0.08689   0.25000   0.0000000000
H          H       0.91311   0.40743   0.25000   0.0000000000
H          H       0.59257   0.50568   0.25000   0.0000000000
H          H       0.53586   0.97417   0.25000   0.0000000000
H          H       0.02583   0.56169   0.25000   0.0000000000
H          H       0.43831   0.46414   0.25000   0.0000000000
H          H       0.46414   0.02583   0.25000   0.0000000000
H          H       0.97417   0.43831   0.25000   0.0000000000
H          H       0.56169   0.53586   0.25000   0.0000000000
H          H       0.43812   0.97255   0.25000   0.0000000000
H          H       0.02745   0.46557   0.25000   0.0000000000
H          H       0.53443   0.56188   0.25000   0.0000000000
H          H       0.56188   0.02745   0.25000   0.0000000000
H          H       0.97255   0.53443   0.25000   0.0000000000
H          H       0.46557   0.43812   0.25000   0.0000000000
H          H       0.40879   0.91071   0.25000   0.0000000000
H          H       0.08929   0.49808   0.25000   0.0000000000
H          H       0.50192   0.59121   0.25000   0.0000000000
H          H       0.59121   0.08929   0.25000   0.0000000000
H          H       0.91071   0.50192   0.25000   0.0000000000
H          H       0.49808   0.40879   0.25000   0.0000000000
C          C       0.32022   0.68798   0.75000   0.0000000000
C          C       0.31202   0.63224   0.75000   0.0000000000
C          C       0.36776   0.67978   0.75000   0.0000000000
C          C       0.67978   0.31202   0.75000   0.0000000000
C          C       0.68798   0.36776   0.75000   0.0000000000
C          C       0.63224   0.32022   0.75000   0.0000000000
C          C       0.35481   0.70135   0.75000   0.0000000000
C          C       0.29865   0.65346   0.75000   0.0000000000
C          C       0.34654   0.64519   0.75000   0.0000000000
C          C       0.64519   0.29865   0.75000   0.0000000000
C          C       0.70135   0.34654   0.75000   0.0000000000
C          C       0.65346   0.35481   0.75000   0.0000000000
C          C       0.37825   0.73921   0.75000   0.0000000000
C          C       0.26079   0.63904   0.75000   0.0000000000
C          C       0.36096   0.62175   0.75000   0.0000000000
C          C       0.62175   0.26079   0.75000   0.0000000000
C          C       0.73921   0.36096   0.75000   0.0000000000
C          C       0.63904   0.37825   0.75000   0.0000000000
C          C       0.36496   0.76174   0.75000   0.0000000000
C          C       0.23826   0.60322   0.75000   0.0000000000
C          C       0.39678   0.63504   0.75000   0.0000000000
C          C       0.63504   0.23826   0.75000   0.0000000000
C          C       0.76174   0.39678   0.75000   0.0000000000
C          C       0.60322   0.36496   0.75000   0.0000000000
C          C       0.38706   0.79738   0.75000   0.0000000000
C          C       0.20262   0.58968   0.75000   0.0000000000
C          C       0.41032   0.61294   0.75000   0.0000000000
C          C       0.61294   0.20262   0.75000   0.0000000000
C          C       0.79738   0.41032   0.75000   0.0000000000
C          C       0.58968   0.38706   0.75000   0.0000000000
C          C       0.42290   0.81125   0.75000   0.0000000000
C          C       0.18875   0.61165   0.75000   0.0000000000
C          C       0.38835   0.57710   0.75000   0.0000000000
C          C       0.57710   0.18875   0.75000   0.0000000000
C          C       0.81125   0.38835   0.75000   0.0000000000
C          C       0.61165   0.42290   0.75000   0.0000000000
C          C       0.43624   0.78887   0.75000   0.0000000000
C          C       0.21113   0.64737   0.75000   0.0000000000
C          C       0.35263   0.56376   0.75000   0.0000000000
C          C       0.56376   0.21113   0.75000   0.0000000000
C          C       0.78887   0.35263   0.75000   0.0000000000
C          C       0.64737   0.43624   0.75000   0.0000000000
C          C       0.41417   0.75323   0.75000   0.0000000000
C          C       0.24677   0.66094   0.75000   0.0000000000
C          C       0.33906   0.58583   0.75000   0.0000000000
C          C       0.58583   0.24677   0.75000   0.0000000000
C          C       0.75323   0.33906   0.75000   0.0000000000
C          C       0.66094   0.41417   0.75000   0.0000000000
C          C       0.44667   0.84881   0.75000   0.0000000000
C          C       0.15119   0.59786   0.75000   0.0000000000
C          C       0.40214   0.55333   0.75000   0.0000000000
C          C       0.55333   0.15119   0.75000   0.0000000000
C          C       0.84881   0.40214   0.75000   0.0000000000
C          C       0.59786   0.44667   0.75000   0.0000000000
N          N       0.43488   0.87005   0.75000   0.0000000000
N          N       0.12995   0.56483   0.75000   0.0000000000
N          N       0.43517   0.56512   0.75000   0.0000000000
N          N       0.56512   0.12995   0.75000   0.0000000000
N          N       0.87005   0.43517   0.75000   0.0000000000
N          N       0.56483   0.43488   0.75000   0.0000000000
C          C       0.45454   0.90703   0.75000   0.0000000000
C          C       0.09297   0.54751   0.75000   0.0000000000
C          C       0.45249   0.54546   0.75000   0.0000000000
C          C       0.54546   0.09297   0.75000   0.0000000000
C          C       0.90703   0.45249   0.75000   0.0000000000
C          C       0.54751   0.45454   0.75000   0.0000000000
C          C       0.49064   0.92578   0.75000   0.0000000000
C          C       0.07422   0.56486   0.75000   0.0000000000
C          C       0.43514   0.50936   0.75000   0.0000000000
C          C       0.50936   0.07422   0.75000   0.0000000000
C          C       0.92578   0.43514   0.75000   0.0000000000
C          C       0.56486   0.49064   0.75000   0.0000000000
C          C       0.50825   0.96178   0.75000   0.0000000000
C          C       0.03822   0.54647   0.75000   0.0000000000
C          C       0.45353   0.49175   0.75000   0.0000000000
C          C       0.49175   0.03822   0.75000   0.0000000000
C          C       0.96178   0.45353   0.75000   0.0000000000
C          C       0.54647   0.50825   0.75000   0.0000000000
C          C       0.49047   0.98047   0.75000   0.0000000000
C          C       0.01953   0.51000   0.75000   0.0000000000
C          C       0.49000   0.50953   0.75000   0.0000000000
C          C       0.50953   0.01953   0.75000   0.0000000000
C          C       0.98047   0.49000   0.75000   0.0000000000
C          C       0.51000   0.49047   0.75000   0.0000000000
C          C       0.45404   0.96092   0.75000   0.0000000000
C          C       0.03908   0.49312   0.75000   0.0000000000
C          C       0.50688   0.54596   0.75000   0.0000000000
C          C       0.54596   0.03908   0.75000   0.0000000000
C          C       0.96092   0.50688   0.75000   0.0000000000
C          C       0.49312   0.45404   0.75000   0.0000000000
C          C       0.43663   0.92496   0.75000   0.0000000000
C          C       0.07504   0.51167   0.75000   0.0000000000
C          C       0.48833   0.56337   0.75000   0.0000000000
C          C       0.56337   0.07504   0.75000   0.0000000000
C          C       0.92496   0.48833   0.75000   0.0000000000
C          C       0.51167   0.43663   0.75000   0.0000000000
H          H       0.33743   0.75173   0.75000   0.0000000000
H          H       0.24827   0.58570   0.75000   0.0000000000
H          H       0.41430   0.66257   0.75000   0.0000000000
H          H       0.66257   0.24827   0.75000   0.0000000000
H          H       0.75173   0.41430   0.75000   0.0000000000
H          H       0.58570   0.33743   0.75000   0.0000000000
H          H       0.37624   0.81421   0.75000   0.0000000000
H          H       0.18579   0.56203   0.75000   0.0000000000
H          H       0.43797   0.62376   0.75000   0.0000000000
H          H       0.62376   0.18579   0.75000   0.0000000000
H          H       0.81421   0.43797   0.75000   0.0000000000
H          H       0.56203   0.37624   0.75000   0.0000000000
H          H       0.46379   0.79901   0.75000   0.0000000000
H          H       0.20099   0.66478   0.75000   0.0000000000
H          H       0.33522   0.53621   0.75000   0.0000000000
H          H       0.53621   0.20099   0.75000   0.0000000000
H          H       0.79901   0.33522   0.75000   0.0000000000
H          H       0.66478   0.46379   0.75000   0.0000000000
H          H       0.42517   0.73655   0.75000   0.0000000000
H          H       0.26345   0.68862   0.75000   0.0000000000
H          H       0.31138   0.57483   0.75000   0.0000000000
H          H       0.57483   0.26345   0.75000   0.0000000000
H          H       0.73655   0.31138   0.75000   0.0000000000
H          H       0.68862   0.42517   0.75000   0.0000000000
H          H       0.47396   0.85798   0.75000   0.0000000000
H          H       0.14202   0.61598   0.75000   0.0000000000
H          H       0.38402   0.52604   0.75000   0.0000000000
H          H       0.52604   0.14202   0.75000   0.0000000000
H          H       0.85798   0.38402   0.75000   0.0000000000
H          H       0.61598   0.47396   0.75000   0.0000000000
H          H       0.50568   0.91311   0.75000   0.0000000000
H          H       0.08689   0.59257   0.75000   0.0000000000
H          H       0.40743   0.49432   0.75000   0.0000000000
H          H       0.49432   0.08689   0.75000   0.0000000000
H          H       0.91311   0.40743   0.75000   0.0000000000
H          H       0.59257   0.50568   0.75000   0.0000000000
H          H       0.53586   0.97417   0.75000   0.0000000000
H          H       0.02583   0.56169   0.75000   0.0000000000
H          H       0.43831   0.46414   0.75000   0.0000000000
H          H       0.46414   0.02583   0.75000   0.0000000000
H          H       0.97417   0.43831   0.75000   0.0000000000
H          H       0.56169   0.53586   0.75000   0.0000000000
H          H       0.43812   0.97255   0.75000   0.0000000000
H          H       0.02745   0.46557   0.75000   0.0000000000
H          H       0.53443   0.56188   0.75000   0.0000000000
H          H       0.56188   0.02745   0.75000   0.0000000000
H          H       0.97255   0.53443   0.75000   0.0000000000
H          H       0.46557   0.43812   0.75000   0.0000000000
H          H       0.40879   0.91071   0.75000   0.0000000000
H          H       0.08929   0.49808   0.75000   0.0000000000
H          H       0.50192   0.59121   0.75000   0.0000000000
H          H       0.59121   0.08929   0.75000   0.0000000000
H          H       0.91071   0.50192   0.75000   0.0000000000
H          H       0.49808   0.40879   0.75000   0.0000000000
