data_crystal

_cell_length_a    46.57000
_cell_length_b    46.90000
_cell_length_c    7.94600
_cell_angle_alpha 70.19000
_cell_angle_beta  89.92000
_cell_angle_gamma 89.91000

_space_group_name_Hall 'P 1'
_space_group_name_H-M_alt  'P 1'

loop_
_symmetry_equiv_pos_as_xyz
'x,y,z' 

loop_
_atom_site_label
_atom_site_type_symbol
_atom_site_fract_x
_atom_site_fract_y
_atom_site_fract_z
C          C       0.96909   0.52515   0.02931 
C          C       0.98422   0.54820   0.06656 
C          C       0.93870   0.52533   0.01920 
C          C       0.92096   0.55233   0.01026 
C          C       0.92822   0.58124  -0.10874 
C          C       0.91105   0.60636  -0.12251 
C          C       0.88586   0.60305  -0.02104 
C          C       0.87814   0.57412   0.09514 
C          C       0.89549   0.54905   0.11024 
C          C       0.86795   0.62992  -0.03935 
N          N       0.84455   0.62753   0.05374 
C          C       0.17168   0.34954  -0.06652 
C          C       0.16563   0.31877   0.02630 
C          C       0.18483   0.29627   0.01958 
C          C       0.21046   0.30392  -0.07875 
C          C       0.21588   0.33452  -0.17662 
C          C       0.19672   0.35705  -0.16961 
C          C       0.77630   0.26863  -0.00810 
C          C       0.78548   0.24115  -0.02420 
C          C       0.76673   0.21838  -0.01708 
C          C       0.46947   0.02874  -0.03148 
C          C       0.48470   0.05363  -0.01843 
C          C       0.43946   0.03013  -0.06368 
C          C       0.42179   0.05784  -0.08948 
C          C       0.42910   0.08572  -0.21931 
C          C       0.41226   0.11148  -0.24275 
C          C       0.38724   0.10965  -0.14131 
C          C       0.37919   0.08153  -0.01691 
C          C       0.39632   0.05595   0.00880 
C          C       0.37010   0.13724  -0.16534 
N          N       0.34751   0.13629  -0.06745 
C          C       0.67075   0.83880   0.12328 
C          C       0.65944   0.81418   0.08235 
C          C       0.67745   0.79089   0.07323 
C          C       0.70704   0.79130   0.10900 
C          C       0.71810   0.81609   0.15014 
C          C       0.70017   0.83970   0.15492 
C          C       0.26258   0.78087  -0.00249 
C          C       0.27000   0.75122   0.10871 
C          C       0.25141   0.72658   0.12967 
C          C       0.92460   0.49955   0.00949 
C          C       0.98478   0.50077   0.00674 
C          C       0.03099   0.47696  -0.01705 
C          C       0.01584   0.45387  -0.05375 
C          C       0.06136   0.47671  -0.00669 
C          C       0.07905   0.44967   0.00172 
C          C       0.07168   0.42072   0.11970 
C          C       0.08847   0.39547   0.13020 
C          C       0.11342   0.39871   0.02657 
C          C       0.12142   0.42772  -0.08701 
C          C       0.10444   0.45290  -0.09889 
C          C       0.13062   0.37165   0.03850 
N          N       0.15307   0.37380  -0.06245 
C          C       0.82483   0.65144   0.04877 
C          C       0.82773   0.68135  -0.07024 
C          C       0.80735   0.70333  -0.07194 
C          C       0.78390   0.69632   0.04707 
C          C       0.78159   0.66651   0.16841 
C          C       0.80150   0.64431   0.16646 
C          C       0.22468   0.73081   0.04124 
C          C       0.21751   0.76046  -0.06475 
C          C       0.23553   0.78442  -0.08538 
C          C       0.52991   0.97269   0.04211 
C          C       0.51566   0.94985  -0.00240 
C          C       0.55915   0.96982   0.09404 
C          C       0.57657   0.94197   0.11730 
C          C       0.56684   0.91309   0.22333 
C          C       0.58311   0.88724   0.23917 
C          C       0.60985   0.88982   0.15418 
C          C       0.62020   0.91871   0.05424 
C          C       0.60373   0.94448   0.03609 
C          C       0.62626   0.86227   0.16675 
N          N       0.65325   0.86398   0.12338 
C          C       0.32925   0.16132  -0.07300 
C          C       0.33715   0.19175  -0.15942 
C          C       0.31847   0.21515  -0.16051 
C          C       0.29154   0.20879  -0.07617 
C          C       0.28412   0.17836   0.01415 
C          C       0.30285   0.15497   0.01587 
C          C       0.73724   0.22053   0.01153 
C          C       0.72741   0.24777   0.03038 
C          C       0.74664   0.27144   0.02091 
C          C       0.07549   0.50241   0.00371 
C          C       0.01533   0.50136   0.00555 
C          C       0.52961   0.02513   0.04352 
C          C       0.51414   0.05233   0.00838 
C          C       0.55950   0.02261   0.08777 
C          C       0.57838   0.04846   0.09218 
C          C       0.56910   0.07073   0.16212 
C          C       0.58609   0.09592   0.14862 
C          C       0.61398   0.09814   0.07979 
C          C       0.62445   0.07496   0.02222 
C          C       0.60673   0.05077   0.02526 
C          C       0.63180   0.12455   0.07056 
N          N       0.65959   0.12319   0.06209 
C          C       0.32267   0.85308  -0.05303 
C          C       0.33233   0.82479  -0.05475 
C          C       0.31269   0.80169  -0.04297 
C          C       0.28306   0.80633  -0.02830 
C          C       0.27360   0.83495  -0.03111 
C          C       0.29321   0.85815  -0.04527 
C          C       0.72652   0.76697   0.09397 
C          C       0.71744   0.73692   0.13303 
C          C       0.73471   0.71507   0.10740 
C          C       0.03009   0.52629   0.02768 
C          C       0.01405   0.54869   0.06648 
C          C       0.06048   0.52760   0.01568 
C          C       0.07735   0.55498   0.01022 
C          C       0.06904   0.58406  -0.10208 
C          C       0.08495   0.60961  -0.10758 
C          C       0.11014   0.60652  -0.00663 
C          C       0.11917   0.57745   0.10016 
C          C       0.10292   0.55201   0.10862 
C          C       0.12653   0.63375  -0.01295 
N          N       0.15225   0.63134   0.05338 
C          C       0.83333   0.34212  -0.02895 
C          C       0.84228   0.31184   0.05109 
C          C       0.82397   0.28807   0.05504 
C          C       0.79642   0.29387  -0.02066 
C          C       0.78794   0.32415  -0.10559 
C          C       0.80628   0.34795  -0.10995 
C          C       0.23112   0.27996  -0.08142 
C          C       0.22152   0.25230  -0.09513 
C          C       0.24115   0.22953  -0.09701 
C          C       0.57295   0.99444   0.12014 
C          C       0.51475   0.99973   0.02649 
C          C       0.47019   0.97656  -0.03431 
C          C       0.48655   0.95189  -0.04185 
C          C       0.43986   0.97725  -0.05299 
C          C       0.42226   0.95010  -0.04530 
C          C       0.42821   0.92132   0.08079 
C          C       0.41089   0.89640   0.09257 
C          C       0.38634   0.89997  -0.01426 
C          C       0.37972   0.92875  -0.13628 
C          C       0.39764   0.95339  -0.15300 
C          C       0.36792   0.87357   0.00305 
N          N       0.34213   0.87726  -0.06280 
C          C       0.67843   0.14793   0.05046 
C          C       0.67088   0.17807  -0.04619 
C          C       0.69004   0.20160  -0.05894 
C          C       0.71705   0.19545   0.02431 
C          C       0.72433   0.16529   0.12240 
C          C       0.70535   0.14172   0.13254 
C          C       0.27102   0.23353  -0.08320 
C          C       0.27996   0.26143  -0.07266 
C          C       0.26085   0.28344  -0.06993 
C          C       0.97003   0.47577  -0.01430 
C          C       0.98603   0.45326  -0.05213 
C          C       0.93968   0.47436  -0.00137 
C          C       0.92302   0.44661   0.00982 
C          C       0.93144   0.41809   0.12864 
C          C       0.91546   0.39218   0.14355 
C          C       0.89032   0.39428   0.04327 
C          C       0.88137   0.42282  -0.07219 
C          C       0.89753   0.44870  -0.08823 
C          C       0.87389   0.36652   0.06159 
N          N       0.85101   0.36748  -0.03362 
C          C       0.16978   0.65634   0.05546 
C          C       0.15789   0.68323   0.06634 
C          C       0.17574   0.70715   0.06659 
C          C       0.20570   0.70477   0.05385 
C          C       0.21746   0.67744   0.04892 
C          C       0.19962   0.65341   0.05115 
C          C       0.76355   0.72062   0.05338 
C          C       0.77333   0.75070   0.01597 
C          C       0.75508   0.77348   0.03329 
C          C       0.42524   0.00415  -0.06807 
C          C       0.48476   0.00168  -0.01294 
N          N       0.19262   0.77035  -0.17259 
C          C       0.19614   0.79937  -0.25121 
N          N       0.22262   0.81067  -0.20764 
O          O       0.67363   0.64560   0.27528 
C          C       0.63915   0.68548   0.23320 
C          C       0.66894   0.67329   0.30237 
N          N       0.81368   0.23279  -0.05878 
C          C       0.81099   0.20603  -0.07274 
N          N       0.78215   0.19481  -0.05073 
O          O       0.33018   0.34377  -0.13417 
C          C       0.35909   0.29960   0.00776 
C          C       0.33000   0.31531   0.00138 
N          N       0.30829   0.27058  -0.04747 
C          C       0.30533   0.29700  -0.02921 
N          N       0.27622   0.30732  -0.03994 
O          O       0.83725   0.15964   0.02892 
C          C       0.86464   0.20416  -0.11810 
C          C       0.83580   0.18803  -0.10697 
N          N       0.69077   0.72392   0.20774 
C          C       0.69210   0.69582   0.21524 
N          N       0.71875   0.68777   0.15261 
O          O       0.16659   0.84309  -0.31726 
C          C       0.14791   0.80210  -0.40051 
C          C       0.17468   0.81949  -0.37829 
H          H       0.97317   0.56582   0.10018 
H          H       0.94702   0.58436  -0.19313 
H          H       0.91723   0.62836  -0.21488 
H          H       0.85878   0.57083   0.17505 
H          H       0.88896   0.52709   0.20048 
H          H       0.87486   0.65149  -0.13219 
H          H       0.14630   0.31172   0.10428 
H          H       0.17979   0.27285   0.09374 
H          H       0.23480   0.34103  -0.26021 
H          H       0.20139   0.38053  -0.24509 
H          H       0.47430   0.07479  -0.03085 
H          H       0.44785   0.08758  -0.30284 
H          H       0.41866   0.13280  -0.34153 
H          H       0.35992   0.07935   0.06284 
H          H       0.38979   0.03468   0.10712 
H          H       0.37670   0.15812  -0.26693 
H          H       0.63694   0.81351   0.05025 
H          H       0.66823   0.77328   0.03101 
H          H       0.74063   0.81733   0.17939 
H          H       0.70918   0.85863   0.18571 
H          H       0.29016   0.74701   0.18072 
H          H       0.25797   0.70425   0.21566 
H          H       0.90137   0.49907   0.01056 
H          H       0.02683   0.43622  -0.08732 
H          H       0.05299   0.41762   0.20505 
H          H       0.08210   0.37340   0.22087 
H          H       0.14067   0.43097  -0.16793 
H          H       0.11113   0.47489  -0.18785 
H          H       0.12414   0.35015   0.13420 
H          H       0.84509   0.68800  -0.16558 
H          H       0.80998   0.72582  -0.16867 
H          H       0.76538   0.66047   0.27176 
H          H       0.79922   0.62155   0.26118 
H          H       0.52682   0.93018  -0.00952 
H          H       0.54639   0.91038   0.29118 
H          H       0.57484   0.86519   0.31836 
H          H       0.64077   0.92139  -0.01307 
H          H       0.61213   0.96641  -0.04342 
H          H       0.61561   0.84047   0.21664 
H          H       0.35768   0.19780  -0.22506 
H          H       0.32507   0.23819  -0.22960 
H          H       0.26395   0.17260   0.08539 
H          H       0.29670   0.13170   0.08634 
H          H       0.70492   0.25068   0.05495 
H          H       0.73828   0.29174   0.03924 
H          H       0.09872   0.50276   0.00301 
H          H       0.52421   0.07359  -0.00577 
H          H       0.54873   0.06884   0.22851 
H          H       0.57787   0.11308   0.19920 
H          H       0.64593   0.07613  -0.03213 
H          H       0.61503   0.03446  -0.03164 
H          H       0.62144   0.14465   0.08027 
H          H       0.35496   0.82062  -0.06735 
H          H       0.32069   0.78016  -0.04570 
H          H       0.25114   0.83938  -0.01850 
H          H       0.28546   0.87994  -0.04535 
H          H       0.02434   0.56658   0.10109 
H          H       0.05027   0.58704  -0.18652 
H          H       0.07784   0.63177  -0.19324 
H          H       0.13853   0.57436   0.17972 
H          H       0.11035   0.53002   0.19335 
H          H       0.11716   0.65587  -0.07971 
H          H       0.86330   0.30617   0.11018 
H          H       0.83130   0.26517   0.12050 
H          H       0.76716   0.32947  -0.16956 
H          H       0.79928   0.37111  -0.17524 
H          H       0.19883   0.24827  -0.10563 
H          H       0.23286   0.20885  -0.11034 
H          H       0.59511   0.99169   0.16339 
H          H       0.47712   0.93395  -0.08009 
H          H       0.44583   0.91816   0.17402 
H          H       0.41612   0.87450   0.18988 
H          H       0.36102   0.93212  -0.22173 
H          H       0.39214   0.97508  -0.25090 
H          H       0.37575   0.85112   0.07893 
H          H       0.65049   0.18336  -0.11501 
H          H       0.68390   0.22459  -0.13612 
H          H       0.74458   0.15992   0.19297 
H          H       0.71139   0.11859   0.20752 
H          H       0.97569   0.43517  -0.08428 
H          H       0.95026   0.41585   0.21176 
H          H       0.92257   0.37050   0.23542 
H          H       0.86200   0.42517  -0.15099 
H          H       0.89010   0.47033  -0.17809 
H          H       0.88112   0.34546   0.15892 
H          H       0.13493   0.68563   0.07744 
H          H       0.16609   0.72743   0.07794 
H          H       0.24044   0.67487   0.03898 
H          H       0.20905   0.63267   0.04488 
H          H       0.79535   0.75678  -0.02281 
H          H       0.76351   0.79624  -0.00227 
H          H       0.40211   0.00493  -0.08200 
H          H       0.22975   0.83303  -0.25347 
H          H       0.68886   0.63476   0.36049 
H          H       0.62260   0.66821   0.29812 
H          H       0.63766   0.69117   0.08663 
H          H       0.63435   0.70629   0.26510 
H          H       0.66944   0.66960   0.44718 
H          H       0.77429   0.17572  -0.07470 
H          H       0.34207   0.35735  -0.09029 
H          H       0.36356   0.29614  -0.12101 
H          H       0.35934   0.27731   0.11702 
H          H       0.37646   0.31378   0.03357 
H          H       0.32628   0.31829   0.13184 
H          H       0.26834   0.32577  -0.00862 
H          H       0.82218   0.14672   0.00320 
H          H       0.86449   0.22627  -0.22878 
H          H       0.88206   0.19000  -0.14419 
H          H       0.86936   0.20803   0.00917 
H          H       0.83209   0.18488  -0.23694 
H          H       0.72316   0.66837   0.12074 
H          H       0.15799   0.85922  -0.42064 
H          H       0.13622   0.79282  -0.27149 
H          H       0.15394   0.78312  -0.44711 
H          H       0.13327   0.81750  -0.50096 
H          H       0.18571   0.82920  -0.50879 
C          C       0.96909   0.52515   0.52931 
C          C       0.98422   0.54820   0.56655 
C          C       0.93870   0.52533   0.51919 
C          C       0.92096   0.55233   0.51025 
C          C       0.92822   0.58124   0.39125 
C          C       0.91105   0.60636   0.37749 
C          C       0.88586   0.60305   0.47896 
C          C       0.87814   0.57412   0.59514 
C          C       0.89549   0.54905   0.61024 
C          C       0.86795   0.62992   0.46065 
N          N       0.84455   0.62753   0.55374 
C          C       0.17168   0.34954   0.43348 
C          C       0.16563   0.31877   0.52630 
C          C       0.18483   0.29627   0.51958 
C          C       0.21046   0.30392   0.42125 
C          C       0.21588   0.33452   0.32338 
C          C       0.19672   0.35705   0.33038 
C          C       0.77630   0.26863   0.49190 
C          C       0.78548   0.24115   0.47580 
C          C       0.76673   0.21838   0.48291 
C          C       0.46947   0.02874   0.46851 
C          C       0.48470   0.05363   0.48157 
C          C       0.43946   0.03013   0.43632 
C          C       0.42179   0.05784   0.41052 
C          C       0.42910   0.08572   0.28068 
C          C       0.41226   0.11148   0.25725 
C          C       0.38724   0.10965   0.35869 
C          C       0.37919   0.08153   0.48308 
C          C       0.39632   0.05595   0.50879 
C          C       0.37010   0.13724   0.33466 
N          N       0.34751   0.13629   0.43255 
C          C       0.67075   0.83880   0.62328 
C          C       0.65944   0.81418   0.58235 
C          C       0.67745   0.79089   0.57323 
C          C       0.70704   0.79130   0.60900 
C          C       0.71810   0.81609   0.65014 
C          C       0.70017   0.83970   0.65492 
C          C       0.26258   0.78087   0.49751 
C          C       0.27000   0.75122   0.60871 
C          C       0.25141   0.72658   0.62966 
C          C       0.92460   0.49955   0.50949 
C          C       0.98478   0.50077   0.50674 
C          C       0.03099   0.47696   0.48294 
C          C       0.01584   0.45387   0.44625 
C          C       0.06136   0.47671   0.49330 
C          C       0.07905   0.44967   0.50172 
C          C       0.07168   0.42072   0.61970 
C          C       0.08847   0.39547   0.63020 
C          C       0.11342   0.39871   0.52657 
C          C       0.12142   0.42772   0.41299 
C          C       0.10444   0.45290   0.40111 
C          C       0.13062   0.37165   0.53850 
N          N       0.15307   0.37380   0.43754 
C          C       0.82483   0.65144   0.54877 
C          C       0.82773   0.68135   0.42975 
C          C       0.80735   0.70333   0.42806 
C          C       0.78390   0.69632   0.54707 
C          C       0.78159   0.66651   0.66841 
C          C       0.80150   0.64431   0.66646 
C          C       0.22468   0.73081   0.54124 
C          C       0.21751   0.76046   0.43525 
C          C       0.23553   0.78442   0.41462 
C          C       0.52991   0.97269   0.54211 
C          C       0.51566   0.94985   0.49759 
C          C       0.55915   0.96982   0.59404 
C          C       0.57657   0.94197   0.61730 
C          C       0.56684   0.91309   0.72333 
C          C       0.58311   0.88724   0.73917 
C          C       0.60985   0.88982   0.65418 
C          C       0.62020   0.91871   0.55424 
C          C       0.60373   0.94448   0.53609 
C          C       0.62626   0.86227   0.66675 
N          N       0.65325   0.86398   0.62338 
C          C       0.32925   0.16132   0.42699 
C          C       0.33715   0.19175   0.34058 
C          C       0.31847   0.21515   0.33949 
C          C       0.29154   0.20879   0.42383 
C          C       0.28412   0.17836   0.51415 
C          C       0.30285   0.15497   0.51587 
C          C       0.73724   0.22053   0.51153 
C          C       0.72741   0.24777   0.53038 
C          C       0.74664   0.27144   0.52091 
C          C       0.07549   0.50241   0.50371 
C          C       0.01533   0.50136   0.50555 
C          C       0.52961   0.02513   0.54352 
C          C       0.51414   0.05233   0.50837 
C          C       0.55950   0.02261   0.58777 
C          C       0.57838   0.04846   0.59218 
C          C       0.56910   0.07073   0.66212 
C          C       0.58609   0.09592   0.64862 
C          C       0.61398   0.09814   0.57979 
C          C       0.62445   0.07496   0.52222 
C          C       0.60673   0.05077   0.52526 
C          C       0.63180   0.12455   0.57056 
N          N       0.65959   0.12319   0.56209 
C          C       0.32267   0.85308   0.44696 
C          C       0.33233   0.82479   0.44525 
C          C       0.31269   0.80169   0.45703 
C          C       0.28306   0.80633   0.47169 
C          C       0.27360   0.83495   0.46889 
C          C       0.29321   0.85815   0.45472 
C          C       0.72652   0.76697   0.59398 
C          C       0.71744   0.73692   0.63303 
C          C       0.73471   0.71507   0.60740 
C          C       0.03009   0.52629   0.52768 
C          C       0.01405   0.54869   0.56648 
C          C       0.06048   0.52760   0.51568 
C          C       0.07735   0.55498   0.51022 
C          C       0.06904   0.58406   0.39791 
C          C       0.08495   0.60961   0.39241 
C          C       0.11014   0.60652   0.49336 
C          C       0.11917   0.57745   0.60016 
C          C       0.10292   0.55201   0.60862 
C          C       0.12653   0.63375   0.48705 
N          N       0.15225   0.63134   0.55338 
C          C       0.83333   0.34212   0.47105 
C          C       0.84228   0.31184   0.55110 
C          C       0.82397   0.28807   0.55504 
C          C       0.79642   0.29387   0.47933 
C          C       0.78794   0.32415   0.39441 
C          C       0.80628   0.34795   0.39004 
C          C       0.23112   0.27996   0.41858 
C          C       0.22152   0.25230   0.40487 
C          C       0.24115   0.22953   0.40299 
C          C       0.57295   0.99444   0.62014 
C          C       0.51475   0.99973   0.52649 
C          C       0.47019   0.97656   0.46568 
C          C       0.48655   0.95189   0.45814 
C          C       0.43986   0.97725   0.44700 
C          C       0.42226   0.95010   0.45470 
C          C       0.42821   0.92132   0.58079 
C          C       0.41089   0.89640   0.59257 
C          C       0.38634   0.89997   0.48573 
C          C       0.37972   0.92875   0.36372 
C          C       0.39764   0.95339   0.34700 
C          C       0.36792   0.87357   0.50305 
N          N       0.34213   0.87726   0.43720 
C          C       0.67843   0.14793   0.55046 
C          C       0.67088   0.17807   0.45380 
C          C       0.69004   0.20160   0.44105 
C          C       0.71705   0.19545   0.52431 
C          C       0.72433   0.16529   0.62240 
C          C       0.70535   0.14172   0.63254 
C          C       0.27102   0.23353   0.41680 
C          C       0.27996   0.26143   0.42733 
C          C       0.26085   0.28344   0.43007 
C          C       0.97003   0.47577   0.48570 
C          C       0.98603   0.45326   0.44787 
C          C       0.93968   0.47436   0.49863 
C          C       0.92302   0.44661   0.50981 
C          C       0.93144   0.41809   0.62865 
C          C       0.91546   0.39218   0.64355 
C          C       0.89032   0.39428   0.54327 
C          C       0.88137   0.42282   0.42780 
C          C       0.89753   0.44870   0.41176 
C          C       0.87389   0.36652   0.56159 
N          N       0.85101   0.36748   0.46637 
C          C       0.16978   0.65634   0.55546 
C          C       0.15789   0.68323   0.56634 
C          C       0.17574   0.70715   0.56659 
C          C       0.20570   0.70477   0.55385 
C          C       0.21746   0.67744   0.54892 
C          C       0.19962   0.65341   0.55115 
C          C       0.76355   0.72062   0.55338 
C          C       0.77333   0.75070   0.51597 
C          C       0.75508   0.77348   0.53329 
C          C       0.42524   0.00415   0.43193 
C          C       0.48476   0.00168   0.48706 
N          N       0.19262   0.77035   0.32740 
C          C       0.19614   0.79937   0.24878 
N          N       0.22262   0.81067   0.29236 
O          O       0.67363   0.64560   0.77528 
C          C       0.63915   0.68548   0.73320 
C          C       0.66894   0.67329   0.80237 
N          N       0.81368   0.23279   0.44122 
C          C       0.81099   0.20603   0.42726 
N          N       0.78215   0.19481   0.44926 
O          O       0.33018   0.34377   0.36582 
C          C       0.35909   0.29960   0.50776 
C          C       0.33000   0.31531   0.50138 
N          N       0.30829   0.27058   0.45253 
C          C       0.30533   0.29700   0.47078 
N          N       0.27622   0.30732   0.46006 
O          O       0.83725   0.15964   0.52892 
C          C       0.86464   0.20416   0.38190 
C          C       0.83580   0.18803   0.39303 
N          N       0.69077   0.72392   0.70774 
C          C       0.69210   0.69582   0.71524 
N          N       0.71875   0.68777   0.65261 
O          O       0.16659   0.84309   0.18274 
C          C       0.14791   0.80210   0.09948 
C          C       0.17468   0.81949   0.12171 
H          H       0.97317   0.56582   0.60018 
H          H       0.94702   0.58436   0.30686 
H          H       0.91723   0.62836   0.28512 
H          H       0.85878   0.57083   0.67505 
H          H       0.88896   0.52709   0.70048 
H          H       0.87486   0.65149   0.36781 
H          H       0.14630   0.31172   0.60428 
H          H       0.17979   0.27285   0.59374 
H          H       0.23480   0.34103   0.23979 
H          H       0.20139   0.38053   0.25490 
H          H       0.47430   0.07479   0.46914 
H          H       0.44785   0.08758   0.19716 
H          H       0.41866   0.13280   0.15847 
H          H       0.35992   0.07935   0.56283 
H          H       0.38979   0.03468   0.60712 
H          H       0.37670   0.15812   0.23307 
H          H       0.63694   0.81351   0.55025 
H          H       0.66823   0.77328   0.53101 
H          H       0.74063   0.81733   0.67939 
H          H       0.70918   0.85863   0.68571 
H          H       0.29016   0.74701   0.68072 
H          H       0.25797   0.70425   0.71566 
H          H       0.90137   0.49907   0.51056 
H          H       0.02683   0.43622   0.41267 
H          H       0.05299   0.41762   0.70505 
H          H       0.08210   0.37340   0.72087 
H          H       0.14067   0.43097   0.33206 
H          H       0.11113   0.47489   0.31215 
H          H       0.12414   0.35015   0.63419 
H          H       0.84509   0.68800   0.33442 
H          H       0.80998   0.72582   0.33133 
H          H       0.76538   0.66047   0.77176 
H          H       0.79922   0.62155   0.76118 
H          H       0.52682   0.93018   0.49048 
H          H       0.54639   0.91038   0.79118 
H          H       0.57484   0.86519   0.81836 
H          H       0.64077   0.92139   0.48692 
H          H       0.61213   0.96641   0.45658 
H          H       0.61561   0.84047   0.71664 
H          H       0.35768   0.19780   0.27494 
H          H       0.32507   0.23819   0.27039 
H          H       0.26395   0.17260   0.58539 
H          H       0.29670   0.13170   0.58634 
H          H       0.70492   0.25068   0.55495 
H          H       0.73828   0.29174   0.53924 
H          H       0.09872   0.50276   0.50301 
H          H       0.52421   0.07359   0.49423 
H          H       0.54873   0.06884   0.72851 
H          H       0.57787   0.11308   0.69920 
H          H       0.64593   0.07613   0.46787 
H          H       0.61503   0.03446   0.46836 
H          H       0.62144   0.14465   0.58027 
H          H       0.35496   0.82062   0.43265 
H          H       0.32069   0.78016   0.45430 
H          H       0.25114   0.83938   0.48150 
H          H       0.28546   0.87994   0.45465 
H          H       0.02434   0.56658   0.60109 
H          H       0.05027   0.58704   0.31348 
H          H       0.07784   0.63177   0.30676 
H          H       0.13853   0.57436   0.67972 
H          H       0.11035   0.53002   0.69335 
H          H       0.11716   0.65587   0.42028 
H          H       0.86330   0.30617   0.61018 
H          H       0.83130   0.26517   0.62050 
H          H       0.76716   0.32947   0.33043 
H          H       0.79928   0.37111   0.32475 
H          H       0.19883   0.24827   0.39436 
H          H       0.23286   0.20885   0.38966 
H          H       0.59511   0.99169   0.66339 
H          H       0.47712   0.93395   0.41991 
H          H       0.44583   0.91816   0.67401 
H          H       0.41612   0.87450   0.68988 
H          H       0.36102   0.93212   0.27827 
H          H       0.39214   0.97508   0.24909 
H          H       0.37575   0.85112   0.57893 
H          H       0.65049   0.18336   0.38499 
H          H       0.68390   0.22459   0.36388 
H          H       0.74458   0.15992   0.69297 
H          H       0.71139   0.11859   0.70752 
H          H       0.97569   0.43517   0.41571 
H          H       0.95026   0.41585   0.71176 
H          H       0.92257   0.37050   0.73542 
H          H       0.86200   0.42517   0.34901 
H          H       0.89010   0.47033   0.32191 
H          H       0.88112   0.34546   0.65892 
H          H       0.13493   0.68563   0.57744 
H          H       0.16609   0.72743   0.57794 
H          H       0.24044   0.67487   0.53898 
H          H       0.20905   0.63267   0.54488 
H          H       0.79535   0.75678   0.47718 
H          H       0.76351   0.79624   0.49772 
H          H       0.40211   0.00493   0.41800 
H          H       0.22975   0.83303   0.24653 
H          H       0.68886   0.63476   0.86049 
H          H       0.62260   0.66821   0.79812 
H          H       0.63766   0.69117   0.58663 
H          H       0.63435   0.70629   0.76509 
H          H       0.66944   0.66960   0.94718 
H          H       0.77429   0.17572   0.42530 
H          H       0.34207   0.35735   0.40970 
H          H       0.36356   0.29614   0.37898 
H          H       0.35934   0.27731   0.61702 
H          H       0.37646   0.31378   0.53357 
H          H       0.32628   0.31829   0.63183 
H          H       0.26834   0.32577   0.49137 
H          H       0.82218   0.14672   0.50320 
H          H       0.86449   0.22627   0.27121 
H          H       0.88206   0.19000   0.35580 
H          H       0.86936   0.20803   0.50917 
H          H       0.83209   0.18488   0.26306 
H          H       0.72316   0.66837   0.62074 
H          H       0.15799   0.85922   0.07936 
H          H       0.13622   0.79282   0.22850 
H          H       0.15394   0.78312   0.05289 
H          H       0.13327   0.81750  -0.00096 
H          H       0.18571   0.82920  -0.00880 
