data_crystal
 
_cell_length_a    43.78000
_cell_length_b    48.86000
_cell_length_c    7.38300
_cell_angle_alpha 75.59000
_cell_angle_beta  92.44000
_cell_angle_gamma 90.00000
 
_symmetry_space_group_name_Hall 'P 1'
_symmetry_space_group_name_H-M  'P 1'
 
loop_
_symmetry_equiv_pos_as_xyz
 'x,y,z' 
 
loop_
_atom_site_label
_atom_site_type_symbol
_atom_site_fract_x
_atom_site_fract_y
_atom_site_fract_z
C          C       1.46719   0.52447   0.01092 
C          C       1.48358   0.54823   0.03316 
C          C       1.43487   0.52489  -0.00600 
C          C       1.41686   0.55102  -0.02046 
C          C       1.41842   0.57358  -0.17991 
C          C       1.40215   0.59862  -0.19217 
C          C       1.38413   0.60151  -0.04512 
C          C       1.38242   0.57877   0.11411 
C          C       1.39856   0.55363   0.12571 
C          C       1.36735   0.62829  -0.06188 
N          N       1.35175   0.63251   0.07492 
C          C       0.66808   0.34303  -0.03908 
C          C       0.66322   0.31648   0.08451 
C          C       0.68150   0.29324   0.07985 
C          C       0.70488   0.29606  -0.04747 
C          C       0.70898   0.32227  -0.17469 
C          C       0.69070   0.34549  -0.17032 
C          C       1.27124   0.27273  -0.05441 
C          C       1.28302   0.24653  -0.06647 
C          C       1.26504   0.22324  -0.04841 
C          C       0.96627   0.02464  -0.04460 
C          C       0.98210   0.04941  -0.03760 
C          C       0.93397   0.02442  -0.06162 
C          C       0.91511   0.05024  -0.07967 
C          C       0.91742   0.07322  -0.23599 
C          C       0.90080   0.09808  -0.24873 
C          C       0.88115   0.10016  -0.10737 
C          C       0.87808   0.07681   0.04641 
C          C       0.89501   0.05202   0.06011 
C          C       0.86443   0.12693  -0.12362 
N          N       0.84148   0.12832  -0.02000 
C          C       1.17825   0.85065  -0.05914 
C          C       1.17113   0.82871  -0.14337 
C          C       1.19134   0.80597  -0.12406 
C          C       1.21952   0.80512  -0.02422 
C          C       1.22790   0.82855   0.04460 
C          C       1.20729   0.85097   0.02954 
C          C       0.76145   0.77572   0.01570 
C          C       0.77723   0.74958   0.06364 
C          C       0.76150   0.72380   0.10293 
C          C       1.41922   0.50013  -0.01191 
C          C       1.48349   0.49945   0.01022 
C          C       0.53226   0.47411   0.02041 
C          C       0.51585   0.45028  -0.00047 
C          C       0.56456   0.47370   0.03689 
C          C       0.58264   0.44766   0.05080 
C          C       0.58075   0.42490   0.20871 
C          C       0.59747   0.40009   0.22205 
C          C       0.61630   0.39766   0.07768 
C          C       0.61846   0.42066  -0.07971 
C          C       0.60182   0.44555  -0.09249 
C          C       0.63342   0.37107   0.09473 
N          N       0.65040   0.36779  -0.03857 
C          C       1.33479   0.65783   0.07218 
C          C       1.34060   0.68392  -0.05336 
C          C       1.32277   0.70770  -0.05541 
C          C       1.29849   0.70598   0.06548 
C          C       1.29399   0.68032   0.19755 
C          C       1.31198   0.65653   0.20106 
C          C       0.72922   0.72310   0.08975 
C          C       0.71403   0.74950   0.03629 
C          C       0.72943   0.77458   0.00408 
C          C       1.03266   0.97445  -0.00383 
C          C       1.01693   0.94989  -0.01672 
C          C       1.06492   0.97462   0.02027 
C          C       1.08455   0.94934   0.03693 
C          C       1.10251   0.93887   0.20170 
C          C       1.12404   0.91742   0.21219 
C          C       1.12807   0.90606   0.05794 
C          C       1.10949   0.91600  -0.10591 
C          C       1.08800   0.93763  -0.11652 
C          C       1.15218   0.88445   0.07067 
N          N       1.15539   0.87184  -0.06299 
C          C       0.82300   0.15304  -0.02904 
C          C       0.83187   0.18044  -0.12216 
C          C       0.81269   0.20368  -0.13209 
C          C       0.78468   0.20031  -0.04325 
C          C       0.77624   0.17290   0.05303 
C          C       0.79517   0.14962   0.05953 
C          C       1.23374   0.22385  -0.01739 
C          C       1.22119   0.24998  -0.00696 
C          C       1.23963   0.27404  -0.02506 
C          C       0.58021   0.49826   0.04660 
C          C       0.51598   0.49911   0.02210 
C          C       1.03103   0.02473  -0.00256 
C          C       1.01378   0.04956  -0.02035 
C          C       1.06329   0.02445   0.02359 
C          C       1.08103   0.04967   0.04061 
C          C       1.07508   0.06367   0.18043 
C          C       1.09157   0.08772   0.19230 
C          C       1.11520   0.09725   0.07063 
C          C       1.12194   0.08263  -0.06442 
C          C       1.10484   0.05916  -0.08011 
C          C       1.13216   0.12280   0.08160 
N          N       1.16070   0.12515   0.04015 
C          C       0.81462   0.85161  -0.05646 
C          C       0.82456   0.82903  -0.12568 
C          C       0.80668   0.80491  -0.10819 
C          C       0.77878   0.80262  -0.01780 
C          C       0.76884   0.82550   0.04950 
C          C       0.78634   0.85000   0.02673 
C          C       1.23983   0.77986   0.00850 
C          C       1.22815   0.75239   0.04904 
C          C       1.24644   0.72906   0.06828 
C          C       0.53210   0.52368   0.03725 
C          C       0.51534   0.54772   0.04843 
C          C       0.56453   0.52329   0.04536 
C          C       0.58286   0.54865   0.05016 
C          C       0.57888   0.57358  -0.09273 
C          C       0.59581   0.59757  -0.08668 
C          C       0.61774   0.59674   0.05866 
C          C       0.62242   0.57157   0.19891 
C          C       0.60496   0.54775   0.19511 
C          C       0.63515   0.62237   0.06236 
N          N       0.66169   0.62080   0.14994 
C          C       1.32786   0.34606  -0.09540 
C          C       1.33972   0.31882  -0.01423 
C          C       1.32118   0.29517   0.00277 
C          C       1.29080   0.29800  -0.06936 
C          C       1.27932   0.32524  -0.15627 
C          C       1.29775   0.34898  -0.16956 
C          C       0.72496   0.27174  -0.04789 
N          N       0.68213   0.75506  -0.00200 
C          C       0.67945   0.78246  -0.05344 
N          N       0.70783   0.79697  -0.05452 
O          O       1.17216   0.67312   0.11515 
C          C       1.14012   0.71383   0.08336 
C          C       1.16996   0.69874   0.16740 
N          N       1.31343   0.23966  -0.10334 
C          C       1.31274   0.21303  -0.10434 
N          N       1.28321   0.20061  -0.07335 
O          O       0.82969   0.33080  -0.14354 
C          C       0.86288   0.29054  -0.02622 
C          C       0.83243   0.30486  -0.00958 
N          N       0.80673   0.26068  -0.03830 
C          C       0.80516   0.28710  -0.03215 
N          N       0.77467   0.29787  -0.03999 
O          O       1.33920   0.16880  -0.02644 
C          C       1.37039   0.20975  -0.09324 
C          C       1.34021   0.19660  -0.13751 
N          N       1.19727   0.74402   0.08024 
C          C       1.19765   0.71663   0.10879 
N          N       1.22753   0.70488   0.10277 
O          O       0.63304   0.79294   0.06824 
C          C       0.63032   0.78708  -0.24520 
C          C       0.64913   0.79751  -0.09663 
H          H       1.47198   0.56737   0.04232 
H          H       1.43242   0.57182  -0.29407 
H          H       1.40381   0.61584  -0.31621 
H          H       1.36866   0.58039   0.22942 
H          H       1.39714   0.53635   0.24956 
H          H       1.36781   0.64415  -0.19342 
H          H       0.64531   0.31337   0.18362 
H          H       0.67763   0.27314   0.17746 
H          H       0.72637   0.32480  -0.27735 
H          H       0.69441   0.36562  -0.26827 
H          H       0.97023   0.06904  -0.04401 
H          H       0.93255   0.07206  -0.34622 
H          H       0.90328   0.11572  -0.36933 
H          H       0.86305   0.07786   0.15727 
H          H       0.89286   0.03440   0.18117 
H          H       0.87105   0.14508  -0.23059 
H          H       1.14914   0.82855  -0.21558 
H          H       1.18468   0.78882  -0.18492 
H          H       1.24969   0.82890   0.11878 
H          H       1.21392   0.86831   0.08913 
H          H       0.80190   0.74898   0.07449 
H          H       0.77497   0.70456   0.14666 
H          H       1.10429   0.99937   0.05438 
H          H       0.97454   0.93051  -0.05180 
H          H       0.93944   0.92310   0.21115 
H          H       0.90875   0.88076   0.22213 
H          H       0.85636   0.92528  -0.27106 
H          H       0.88846   0.96698  -0.28990 
H          H       0.87215   0.85387   0.05430 
H          H       1.14456   0.17866  -0.13826 
H          H       1.17630   0.22071  -0.16761 
H          H       1.24694   0.16976   0.18604 
H          H       1.21599   0.12743   0.20059 
H          H       1.47277   0.43174  -0.03000 
H          H       1.43626   0.42657   0.26978 
H          H       1.40836   0.38288   0.27586 
H          H       1.36484   0.42203  -0.26237 
H          H       1.39334   0.46560  -0.26914 
H          H       1.37458   0.35445   0.12936 
H          H       0.64209   0.66833   0.23581 
H          H       0.67136   0.71110   0.22053 
H          H       0.74972   0.67114   0.05452 
H          H       0.72078   0.62796   0.08253 
H          H       1.31518   0.76145   0.01027 
H          H       1.28223   0.80312  -0.03240 
H          H       0.89419  -0.00085  -0.06940 
H          H       0.71116   0.81875  -0.08755 
H          H       1.18405   0.65976   0.21713 
H          H       1.12054   0.69959   0.12651 
H          H       1.14002   0.72014  -0.07147 
H          H       1.13684   0.73302   0.13503 
H          H       1.16884   0.69462   0.32155 
H          H       1.27666   0.18032  -0.07890 
H          H       0.84136   0.34484  -0.09237 
H          H       0.86328   0.28357  -0.15794 
H          H       0.86657   0.27193   0.09351 
H          H       0.88194   0.30544  -0.02304 
H          H       0.83207   0.30857   0.13231 
H          H       0.76773   0.31755  -0.02442 
H          H       1.32600   0.15791  -0.09523 
H          H       1.37365   0.23017  -0.19587 
H          H       1.38967   0.19546  -0.10270 
H          H       1.37097   0.21341   0.04918 
H          H       1.33983   0.19650  -0.28760 
H          H       1.23308   0.68408   0.10387 
H          H       0.61622   0.80720   0.04401 
H          H       0.62210   0.76534  -0.18576 
H          H       0.64409   0.78703  -0.36755 
C          C       0.06478   0.47362   0.54162 
C          C       0.08279   0.44754   0.55544 
C          C       0.08083   0.42473   0.71301 
C          C       0.09740   0.39985   0.72566 
C          C       0.11616   0.39741   0.58097 
C          C       0.11841   0.42047   0.42402 
C          C       0.10192   0.44542   0.41195 
C          C       0.13314   0.37075   0.59717 
N          N       0.15011   0.36750   0.46372 
C          C       0.83510   0.65823   0.57109 
C          C       0.84079   0.68433   0.44536 
C          C       0.82299   0.70809   0.44418 
C          C       0.79884   0.70634   0.56605 
C          C       0.79452   0.68070   0.69868 
C          C       0.81244   0.65690   0.70103 
C          C       0.23007   0.72269   0.58996 
C          C       0.21477   0.74903   0.53574 
C          C       0.23007   0.77416   0.50239 
C          C       0.53284   0.97441   0.50407 
C          C       0.51719   0.94978   0.49200 
C          C       0.56510   0.97467   0.52826 
C          C       0.58482   0.94947   0.54415 
C          C       0.60319   0.93924   0.70747 
C          C       0.62474   0.91782   0.71700 
C          C       0.62832   0.90624   0.56329 
C          C       0.60933   0.91595   0.40100 
C          C       0.58786   0.93756   0.39123 
C          C       0.65238   0.88462   0.57490 
N          N       0.65526   0.87189   0.44165 
C          C       0.32267   0.15275   0.47138 
C          C       0.33148   0.18015   0.37785 
C          C       0.31229   0.20338   0.36818 
C          C       0.28431   0.19998   0.45734 
C          C       0.27588   0.17255   0.55352 
C          C       0.29485   0.14930   0.56001 
C          C       0.73370   0.22427   0.48224 
C          C       0.72116   0.25041   0.49251 
C          C       0.73961   0.27447   0.47457 
C          C       0.08048   0.49813   0.55165 
C          C       0.01627   0.49921   0.52475 
C          C       0.53105   0.02473   0.50445 
C          C       0.51373   0.04954   0.48580 
C          C       0.56329   0.02451   0.53128 
C          C       0.58098   0.04981   0.54727 
C          C       0.57506   0.06397   0.68632 
C          C       0.59151   0.08811   0.69683 
N          N       0.33353   0.87592   0.43257 
C          C       0.67783   0.15060   0.53595 
C          C       0.66670   0.17714   0.43406 
C          C       0.68490   0.20106   0.41677 
C          C       0.71431   0.19888   0.50350 
C          C       0.72486   0.17236   0.61089 
C          C       0.70705   0.14831   0.62268 
C          C       0.26398   0.22470   0.45199 
C          C       0.27531   0.25181   0.44799 
C          C       0.25628   0.27402   0.44750 
C          C       0.96762   0.47501   0.49921 
C          C       0.98426   0.45081   0.48997 
C          C       0.93523   0.47534   0.49306 
C          C       0.91721   0.44950   0.49871 
C          C       0.92072   0.42611   0.65332 
C          C       0.90471   0.40131   0.65677 
C          C       0.88450   0.39962   0.50737 
C          C       0.88037   0.42328   0.35441 
C          C       0.89664   0.44808   0.35032 
C          C       0.86811   0.37300   0.51585 
N          N       0.84539   0.37155   0.39938 
C          C       0.18022   0.64481   0.65932 
C          C       0.16670   0.66841   0.70039 
C          C       0.18338   0.69313   0.68761 
C          C       0.21353   0.69517   0.62731 
C          C       0.22739   0.67065   0.59798 
C          C       0.21096   0.64568   0.61553 
C          C       0.77856   0.73127   0.55370 
C          C       0.79079   0.75879   0.51898 
C          C       0.77168   0.78273   0.49625 
C          C       0.41910  -0.00103   0.44260 
C          C       0.48327  -0.00068   0.47339 
N          N       0.18283   0.75446   0.49927 
C          C       0.18002   0.78182   0.44771 
N          N       0.20834   0.79649   0.44483 
O          O       0.67216   0.67339   0.60695 
C          C       0.64039   0.71400   0.58584 
C          C       0.67026   0.69854   0.66521 
N          N       0.81342   0.24006   0.39704 
C          C       0.81275   0.21343   0.39616 
N          N       0.78321   0.20100   0.42697 
O          O       0.32925   0.33049   0.35496 
C          C       0.36244   0.29031   0.47513 
C          C       0.33194   0.30467   0.49009 
N          N       0.30632   0.26040   0.46196 
C          C       0.30471   0.28683   0.46786 
H          H       0.61147   0.90734   0.28028 
H          H       0.57416   0.94545   0.26303 
H          H       0.66718   0.87887   0.70035 
H          H       0.35334   0.18395   0.31532 
H          H       0.31957   0.22393   0.29068 
H          H       0.25485   0.16897   0.62722 
H          H       0.28786   0.12844   0.63514 
H          H       0.69721   0.25215   0.51924 
H          H       0.72913   0.29387   0.48803 
H          H       0.10528   0.49762   0.56182 
H          H       0.52436   0.06952   0.48539 
H          H       0.55741   0.05656   0.78473 
H          H       0.58613   0.09920   0.80173 
H          H       0.63980   0.08985   0.34385 
H          H       0.61002   0.04839   0.31971 
H          H       0.62045   0.13993   0.62878 
H          H       0.34670   0.83009   0.30599 
H          H       0.31552   0.78784   0.33347 
H          H       0.24860   0.82373   0.62423 
H          H       0.27872   0.86693   0.58000 
H          H       0.02695   0.56650   0.57320 
H          H       0.06312   0.57444   0.29623 
H          H       0.09312   0.61646   0.30736 
H          H       0.13973   0.57001   0.81826 
H          H       0.10873   0.52840   0.81120 
H          H       0.12727   0.64222   0.48691 
H          H       0.86320   0.31616   0.53727 
H          H       0.83069   0.27520   0.57398 
H          H       0.75617   0.32864   0.28325 
H          H       0.78831   0.37020   0.26433 
H          H       0.18795   0.24145   0.45733 
H          H       0.22138   0.20167   0.45210 
H          H       0.60437   0.99954   0.56246 
H          H       0.47489   0.93027   0.45686 
H          H       0.43931   0.92288   0.71612 
H          H       0.40867   0.88056   0.72521 
H          H       0.35691   0.92513   0.22959 
H          H       0.38903   0.96679   0.21232 
H          H       0.37237   0.85372   0.55583 
H          H       0.64434   0.17913   0.36324 
C          C       0.71282   0.24494  -0.04441 
C          C       0.73220   0.22200  -0.04641 
C          C       1.07959   0.99949   0.03407 
C          C       1.01565   0.99954  -0.01340 
C          C       0.96766   0.97410  -0.03875 
C          C       0.98515   0.94985  -0.03693 
C          C       0.93515   0.97395  -0.04928 
C          C       0.91694   0.94800  -0.04347 
C          C       0.92188   0.92355   0.10258 
C          C       0.90422   0.89950   0.10978 
C          C       0.88034   0.89987  -0.02361 
C          C       0.87466   0.92453  -0.16644 
C          C       0.89301   0.94828  -0.17727 
C          C       0.86190   0.87431  -0.01229 
N          N       0.83322   0.87608  -0.06734 
C          C       1.17801   0.15014   0.03474 
C          C       1.16687   0.17668  -0.06693 
C          C       1.18501   0.20062  -0.08348 
C          C       1.21438   0.19845   0.00376 
C          C       1.22494   0.17192   0.11100 
C          C       1.20719   0.14785   0.12207 
C          C       0.76437   0.22504  -0.04865 
C          C       0.77572   0.25212  -0.05232 
C          C       0.75671   0.27432  -0.05252 
C          C       1.46738   0.47476  -0.00176 
C          C       1.48407   0.45061  -0.01150 
C          C       1.43499   0.47500  -0.00688 
C          C       1.41705   0.44912  -0.00107 
C          C       1.42072   0.42569   0.15316 
C          C       1.40484   0.40083   0.15639 
C          C       1.38457   0.39913   0.00724 
C          C       1.38032   0.42282  -0.14543 
C          C       1.39647   0.44767  -0.14933 
C          C       1.36823   0.37250   0.01571 
N          N       1.34549   0.37106  -0.10060 
C          C       0.67917   0.64539   0.15471 
C          C       0.66565   0.66896   0.19622 
C          C       0.68238   0.69362   0.18472 
C          C       0.71259   0.69562   0.12541 
C          C       0.72645   0.67112   0.09591 
C          C       0.70996   0.64620   0.11220 
C          C       1.27835   0.73100   0.05341 
C          C       1.29076   0.75844   0.01969 
C          C       1.27181   0.78248  -0.00269 
C          C       0.91898  -0.00084  -0.06100 
C          C       0.98316  -0.00058  -0.03255 
H          H       1.39442   0.50039  -0.01955 
H          H       0.52742   0.43116  -0.01010 
H          H       0.56618   0.42636   0.32098 
H          H       0.59560   0.38272   0.34500 
H          H       0.63296   0.41944  -0.19273 
H          H       0.60360   0.46304  -0.21482 
H          H       0.63196   0.35462   0.22268 
H          H       1.35897   0.68626  -0.14910 
H          H       1.32784   0.72734  -0.15402 
H          H       1.27667   0.67868   0.29867 
H          H       1.30781   0.63686   0.30273 
H          H       1.02903   0.93036  -0.01078 
H          H       1.10027   0.94782   0.32087 
H          H       1.13794   0.91001   0.34016 
H          H       1.11200   0.90758  -0.22710 
H          H       1.07464   0.94574  -0.24578 
H          H       1.16674   0.87859   0.19715 
H          H       0.85376   0.18421  -0.18433 
H          H       0.82001   0.22423  -0.20947 
H          H       0.75520   0.16936   0.12672 
H          H       0.78813   0.12878   0.13451 
H          H       1.19724   0.25169   0.02001 
H          H       1.22915   0.29344  -0.01147 
H          H       0.60500   0.49785   0.05596 
H          H       1.02448   0.06951  -0.02113 
H          H       1.05739   0.05619   0.27842 
H          H       1.08616   0.09869   0.29775 
H          H       1.13989   0.08982  -0.16097 
H          H       1.11003   0.04850  -0.18758 
H          H       1.12079   0.13932   0.12887 
H          H       0.84616   0.83013  -0.19312 
H          H       0.81490   0.78791  -0.16391 
H          H       0.74817   0.82416   0.12594 
H          H       0.77849   0.86726   0.08133 
H          H       0.52653   0.56637   0.07132 
H          H       0.56236   0.57451  -0.20767 
H          H       0.59201   0.61674  -0.19668 
H          H       0.63913   0.57048   0.31301 
H          H       0.60846   0.52866   0.30615 
H          H       0.62618   0.64267  -0.01821 
H          H       1.36324   0.31566   0.03752 
H          H       1.33069   0.27474   0.07426 
H          H       1.25618   0.32824  -0.21600 
H          H       1.28837   0.36977  -0.23506 
H          H       0.68835   0.24182  -0.04353 
H          H       0.72176   0.20204  -0.04941 
H          H       0.61011   0.80114  -0.29383 
H          H       0.65343   0.82052  -0.15075 
C          C       0.96753   0.52472   0.51201 
C          C       0.98397   0.54844   0.53458 
C          C       0.93522   0.52522   0.49425 
C          C       0.91727   0.55140   0.47958 
C          C       0.91899   0.57399   0.32042 
C          C       0.90275   0.59906   0.30786 
C          C       0.88460   0.60195   0.45433 
C          C       0.88280   0.57921   0.61351 
C          C       0.89891   0.55404   0.62538 
C          C       0.86778   0.62873   0.43705 
N          N       0.85209   0.63293   0.57354 
C          C       0.16770   0.34271   0.46235 
C          C       0.16290   0.31616   0.58599 
C          C       0.18116   0.29291   0.58081 
C          C       0.20444   0.29573   0.45283 
C          C       0.20848   0.32196   0.32560 
C          C       0.19022   0.34517   0.33047 
C          C       0.77122   0.27315   0.44545 
C          C       0.78301   0.24693   0.43368 
C          C       0.76502   0.22364   0.45165 
C          C       0.46632   0.02454   0.46006 
C          C       0.48207   0.04935   0.46717 
C          C       0.43403   0.02427   0.44202 
C          C       0.41510   0.05006   0.42320 
C          C       0.41745   0.07302   0.26675 
C          C       0.40079   0.09786   0.25349 
C          C       0.38102   0.09995   0.39428 
C          C       0.37790   0.07661   0.54807 
C          C       0.39487   0.05184   0.56235 
C          C       0.36418   0.12668   0.37720 
N          N       0.34124   0.12807   0.48086 
C          C       0.67806   0.85065   0.44453 
C          C       0.67072   0.82870   0.36096 
C          C       0.69093   0.80598   0.37841 
C          C       0.71927   0.80516   0.47658 
C          C       0.72776   0.82854   0.54559 
C          C       0.70723   0.85100   0.53148 
C          C       0.26208   0.77544   0.51347 
C          C       0.27795   0.74934   0.56172 
C          C       0.26234   0.72351   0.60223 
C          C       0.91951   0.50052   0.48772 
C          C       0.98378   0.49965   0.51177 
C          C       0.03249   0.47415   0.52384 
C          C       0.01604   0.45038   0.50228 
C          C       0.61506   0.09759   0.57441 
C          C       0.62185   0.08276   0.44062 
C          C       0.60480   0.05920   0.42635 
C          C       0.63192   0.12328   0.58336 
N          N       0.66048   0.12559   0.54250 
C          C       0.31500   0.85142   0.44261 
C          C       0.32507   0.82891   0.37320 
C          C       0.30725   0.80476   0.38992 
C          C       0.27931   0.80237   0.48000 
C          C       0.26930   0.82516   0.54793 
C          C       0.28670   0.84970   0.52559 
C          C       0.73970   0.77997   0.50761 
C          C       0.72820   0.75244   0.54808 
C          C       0.74666   0.72918   0.56843 
C          C       0.03245   0.52374   0.54016 
C          C       0.01573   0.54786   0.55046 
C          C       0.06487   0.52323   0.54950 
C          C       0.08331   0.54851   0.55476 
C          C       0.07958   0.57343   0.41154 
C          C       0.09673   0.59730   0.41763 
C          C       0.11861   0.59635   0.56341 
C          C       0.12305   0.57119   0.70388 
C          C       0.10540   0.54748   0.70000 
C          C       0.13616   0.62189   0.56737 
N          N       0.16272   0.62022   0.65478 
C          C       0.82780   0.34653   0.40443 
C          C       0.83968   0.31929   0.48559 
C          C       0.82116   0.29563   0.50250 
C          C       0.79079   0.29843   0.43028 
C          C       0.77930   0.32566   0.34317 
C          C       0.79770   0.34942   0.32999 
C          C       0.22453   0.27142   0.45218 
C          C       0.21242   0.24459   0.45627 
C          C       0.23181   0.22165   0.45459 
C          C       0.57967   0.99958   0.54224 
C          C       0.51575   0.99949   0.49364 
C          C       0.46784   0.97395   0.46743 
C          C       0.48542   0.94968   0.47098 
C          C       0.43533   0.97376   0.45549 
C          C       0.41717   0.94780   0.46030 
C          C       0.42193   0.92335   0.60654 
C          C       0.40427   0.89931   0.61274 
C          C       0.38057   0.89970   0.47822 
C          C       0.37507   0.92436   0.33512 
C          C       0.39343   0.94809   0.32519 
C          C       0.36216   0.87415   0.48859 
N          N       0.27421   0.29759   0.45981 
O          O       0.83924   0.16920   0.47339 
C          C       0.87041   0.21018   0.40753 
C          C       0.84024   0.19703   0.36281 
N          N       0.69737   0.74392   0.57863 
C          C       0.69794   0.71652   0.60829 
N          N       0.72790   0.70489   0.60356 
O          O       0.13345   0.79157   0.57072 
C          C       0.13106   0.78671   0.25525 
C          C       0.14964   0.79677   0.40598 
H          H       0.97241   0.56760   0.54347 
H          H       0.93310   0.57223   0.20673 
H          H       0.90453   0.61630   0.18403 
H          H       0.86897   0.58084   0.72856 
H          H       0.89741   0.53677   0.74916 
H          H       0.86831   0.64459   0.30557 
H          H       0.14508   0.31303   0.68570 
H          H       0.17735   0.27282   0.67862 
H          H       0.22582   0.32449   0.22259 
H          H       0.19390   0.36531   0.23255 
H          H       0.47013   0.06898   0.45994 
H          H       0.43266   0.07185   0.15688 
H          H       0.40333   0.11550   0.13291 
H          H       0.36277   0.07766   0.65847 
H          H       0.39266   0.03422   0.68338 
H          H       0.37074   0.14480   0.26984 
H          H       0.64860   0.82855   0.29013 
H          H       0.68409   0.78884   0.31779 
H          H       0.74967   0.82892   0.61841 
H          H       0.71400   0.86832   0.59101 
H          H       0.30261   0.74883   0.57165 
H          H       0.27586   0.70432   0.64646 
H          H       0.89471   0.50085   0.47940 
H          H       0.02758   0.43122   0.49311 
H          H       0.06630   0.42620   0.82544 
H          H       0.09544   0.38244   0.84825 
H          H       0.13283   0.41924   0.31069 
H          H       0.10375   0.46294   0.28993 
H          H       0.13161   0.35425   0.72479 
H          H       0.85903   0.68669   0.34876 
H          H       0.82797   0.72775   0.34548 
H          H       0.77739   0.67906   0.80104 
H          H       0.80834   0.63722   0.80273 
H          H       0.52932   0.93022   0.49928 
H          H       0.60129   0.94834   0.82622 
H          H       0.63895   0.91060   0.84388 
H          H       0.67619   0.22115   0.33266 
H          H       0.74687   0.17018   0.68575 
H          H       0.71583   0.12790   0.70145 
H          H       0.97292   0.43199   0.47091 
H          H       0.93622   0.42698   0.77015 
H          H       0.90809   0.38340   0.77666 
H          H       0.86490   0.42252   0.23742 
H          H       0.89360   0.46599   0.23031 
H          H       0.87446   0.35495   0.62945 
H          H       0.14318   0.66776   0.74074 
H          H       0.17235   0.71063   0.72295 
H          H       0.25066   0.67069   0.55664 
H          H       0.22176   0.62745   0.58560 
H          H       0.81519   0.76192   0.50914 
H          H       0.78199   0.80341   0.46611 
H          H       0.39431  -0.00108   0.43344 
H          H       0.21154   0.81827   0.41080 
H          H       0.68476   0.65984   0.70404 
H          H       0.62084   0.69955   0.62469 
H          H       0.64027   0.72153   0.43133 
H          H       0.63715   0.73245   0.64526 
H          H       0.66942   0.69364   0.81965 
H          H       0.77667   0.18071   0.42145 
H          H       0.34105   0.34457   0.40496 
H          H       0.36297   0.28316   0.34408 
H          H       0.36607   0.27181   0.59578 
H          H       0.38147   0.30525   0.47797 
H          H       0.33147   0.30858   0.63139 
H          H       0.26724   0.31725   0.47551 
H          H       0.82596   0.15837   0.40459 
H          H       0.87369   0.23061   0.30513 
H          H       0.88971   0.19590   0.39817 
H          H       0.87094   0.21382   0.54996 
H          H       0.83989   0.19701   0.21260 
H          H       0.73364   0.68404   0.60709 
H          H       0.11724   0.80637   0.55084 
H          H       0.12275   0.76495   0.31349 
H          H       0.14507   0.78683   0.13339 
H          H       0.11097   0.80094   0.20680 
H          H       0.15383   0.81986   0.35501 
