data_crystal

_cell_length_a    31.46600
_cell_length_b    7.26400
_cell_length_c    25.82400
_cell_angle_alpha 90.00000
_cell_angle_beta  96.06500
_cell_angle_gamma 90.00000

_space_group_name_Hall 'P 1'
_space_group_name_H-M_alt  'P 1'

loop_
_symmetry_equiv_pos_as_xyz
'x,y,z' 

loop_
_atom_site_label
_atom_site_type_symbol
_atom_site_fract_x
_atom_site_fract_y
_atom_site_fract_z
C          C       0.02978   0.03291   0.28463 
C          C       0.97022   0.03291   0.21537 
C          C       0.52978   0.53291   0.28463 
C          C       0.47022   0.53291   0.21537 
C          C       0.97022   0.96709   0.71537 
C          C       0.02978   0.96709   0.78463 
C          C       0.47022   0.46709   0.71537 
C          C       0.52978   0.46709   0.78463 
C          C       0.97432   0.77257   0.28284 
C          C       0.02568   0.77257   0.21716 
C          C       0.47432   0.27257   0.28284 
C          C       0.52568   0.27257   0.21716 
C          C       0.02568   0.22743   0.71716 
C          C       0.97432   0.22743   0.78284 
C          C       0.52568   0.72743   0.71716 
C          C       0.47432   0.72743   0.78284 
C          C       0.92947   0.77240   0.27876 
C          C       0.07053   0.77240   0.22124 
C          C       0.42947   0.27240   0.27876 
C          C       0.57053   0.27240   0.22124 
C          C       0.07053   0.22760   0.72124 
C          C       0.92947   0.22760   0.77876 
C          C       0.57053   0.72760   0.72124 
C          C       0.42947   0.72760   0.77876 
C          C       0.92881   0.51691   0.33892 
C          C       0.07119   0.51691   0.16108 
C          C       0.42881   0.01691   0.33892 
C          C       0.57119   0.01691   0.16108 
C          C       0.07119   0.48309   0.66108 
C          C       0.92881   0.48309   0.83892 
C          C       0.57119   0.98309   0.66108 
C          C       0.42881   0.98309   0.83892 
C          C       0.05397   0.16239   0.25959 
C          C       0.94603   0.16239   0.24041 
C          C       0.55397   0.66239   0.25959 
C          C       0.44603   0.66239   0.24041 
C          C       0.94603   0.83761   0.74041 
C          C       0.05397   0.83761   0.75959 
C          C       0.44603   0.33761   0.74041 
C          C       0.55397   0.33761   0.75959 
C          C       0.99570   0.63832   0.31562 
C          C       0.00430   0.63832   0.18438 
C          C       0.49570   0.13832   0.31562 
C          C       0.50430   0.13832   0.18438 
C          C       0.00430   0.36168   0.68438 
C          C       0.99570   0.36168   0.81562 
C          C       0.50430   0.86168   0.68438 
C          C       0.49570   0.86168   0.81562 
C          C       0.90742   0.64941   0.30718 
C          C       0.09258   0.64941   0.19282 
C          C       0.40742   0.14941   0.30718 
C          C       0.59258   0.14941   0.19282 
C          C       0.09258   0.35059   0.69282 
C          C       0.90742   0.35059   0.80718 
C          C       0.59258   0.85059   0.69282 
C          C       0.40742   0.85059   0.80718 
N          N       0.11086   0.41774   0.37236 
N          N       0.88914   0.41774   0.12764 
N          N       0.61086   0.91774   0.37236 
N          N       0.38914   0.91774   0.12764 
N          N       0.88914   0.58226   0.62764 
N          N       0.11086   0.58226   0.87236 
N          N       0.38914   0.08226   0.62764 
N          N       0.61086   0.08226   0.87236 
C          C       0.03282   0.03732   0.33974 
C          C       0.96718   0.03732   0.16026 
C          C       0.53282   0.53732   0.33974 
C          C       0.46718   0.53732   0.16026 
C          C       0.96718   0.96268   0.66026 
C          C       0.03282   0.96268   0.83974 
C          C       0.46718   0.46268   0.66026 
C          C       0.53282   0.46268   0.83974 
C          C       0.08429   0.28684   0.34247 
C          C       0.91571   0.28684   0.15753 
C          C       0.58429   0.78684   0.34247 
C          C       0.41571   0.78684   0.15753 
C          C       0.91571   0.71316   0.65753 
C          C       0.08429   0.71316   0.84247 
C          C       0.41571   0.21316   0.65753 
C          C       0.58429   0.21316   0.84247 
C          C       0.06028   0.16106   0.36813 
C          C       0.93972   0.16106   0.13187 
C          C       0.56028   0.66106   0.36813 
C          C       0.43972   0.66106   0.13187 
C          C       0.93972   0.83894   0.63187 
C          C       0.06028   0.83894   0.86813 
C          C       0.43972   0.33894   0.63187 
C          C       0.56028   0.33894   0.86813 
N          N       0.90333   0.38480   0.36269 
N          N       0.09667   0.38480   0.13731 
N          N       0.40333   0.88480   0.36269 
N          N       0.59667   0.88480   0.13731 
N          N       0.09667   0.61520   0.63731 
N          N       0.90333   0.61520   0.86269 
N          N       0.59667   0.11520   0.63731 
N          N       0.40333   0.11520   0.86269 
C          C       0.97334   0.51246   0.34353 
C          C       0.02666   0.51246   0.15647 
C          C       0.47334   0.01246   0.34353 
C          C       0.52666   0.01246   0.15647 
C          C       0.02666   0.48754   0.65647 
C          C       0.97334   0.48754   0.84353 
C          C       0.52666   0.98754   0.65647 
C          C       0.47334   0.98754   0.84353 
C          C       0.08161   0.28286   0.28790 
C          C       0.91839   0.28286   0.21210 
C          C       0.58161   0.78286   0.28790 
C          C       0.41839   0.78286   0.21210 
C          C       0.91839   0.71714   0.71210 
C          C       0.08161   0.71714   0.78790 
C          C       0.41839   0.21714   0.71210 
C          C       0.58161   0.21714   0.78790 
C          C       0.22582   0.11215   0.47201 
C          C       0.77418   0.11215   0.02799 
C          C       0.72582   0.61215   0.47201 
C          C       0.27418   0.61215   0.02799 
C          C       0.77418   0.88785   0.52799 
C          C       0.22582   0.88785   0.97201 
C          C       0.27418   0.38785   0.52799 
C          C       0.72582   0.38785   0.97201 
C          C       0.25961   0.19778   0.45034 
C          C       0.74039   0.19778   0.04966 
C          C       0.75961   0.69778   0.45034 
C          C       0.24039   0.69778   0.04966 
C          C       0.74039   0.80222   0.54966 
C          C       0.25961   0.80222   0.95034 
C          C       0.24039   0.30222   0.54966 
C          C       0.75961   0.30222   0.95034 
C          C       0.28395   0.33421   0.47800 
C          C       0.71605   0.33421   0.02200 
C          C       0.78395   0.83421   0.47800 
C          C       0.21605   0.83421   0.02200 
C          C       0.71605   0.66579   0.52200 
C          C       0.28395   0.66579   0.97800 
C          C       0.21605   0.16579   0.52200 
C          C       0.78395   0.16579   0.97800 
C          C       0.20058   0.96934   0.44151 
C          C       0.79942   0.96934   0.05849 
C          C       0.70058   0.46934   0.44151 
C          C       0.29942   0.46934   0.05849 
C          C       0.79942   0.03066   0.55849 
C          C       0.20058   0.03066   0.94151 
C          C       0.29942   0.53066   0.55849 
C          C       0.70058   0.53066   0.94151 
C          C       0.81855   0.92434   0.45368 
C          C       0.18145   0.92434   0.04632 
C          C       0.31855   0.42434   0.45368 
C          C       0.68145   0.42434   0.04632 
C          C       0.18145   0.07566   0.54632 
C          C       0.81855   0.07566   0.95368 
C          C       0.68145   0.57566   0.54632 
C          C       0.31855   0.57566   0.95368 
C          C       0.80856   0.03747   0.41019 
C          C       0.19144   0.03747   0.08981 
C          C       0.30856   0.53747   0.41019 
C          C       0.69144   0.53747   0.08981 
C          C       0.19144   0.96253   0.58981 
C          C       0.80856   0.96253   0.91019 
C          C       0.69144   0.46253   0.58981 
C          C       0.30856   0.46253   0.91019 
C          C       0.84018   0.13985   0.38996 
C          C       0.15982   0.13985   0.11004 
C          C       0.34018   0.63985   0.38996 
C          C       0.65982   0.63985   0.11004 
C          C       0.15982   0.86015   0.61004 
C          C       0.84018   0.86015   0.88996 
C          C       0.65982   0.36015   0.61004 
C          C       0.34018   0.36015   0.88996 
C          C       0.88248   0.12993   0.41270 
C          C       0.11752   0.12993   0.08730 
C          C       0.38248   0.62993   0.41270 
C          C       0.61752   0.62993   0.08730 
C          C       0.11752   0.87007   0.58730 
C          C       0.88248   0.87007   0.91270 
C          C       0.61752   0.37007   0.58730 
C          C       0.38248   0.37007   0.91270 
C          C       0.89279   0.00998   0.45482 
C          C       0.10721   0.00998   0.04518 
C          C       0.39279   0.50998   0.45482 
C          C       0.60721   0.50998   0.04518 
C          C       0.10721   0.99002   0.54518 
C          C       0.89279   0.99002   0.95482 
C          C       0.60721   0.49002   0.54518 
C          C       0.39279   0.49002   0.95482 
C          C       0.86093   0.90823   0.47540 
C          C       0.13907   0.90823   0.02460 
C          C       0.36093   0.40823   0.47540 
C          C       0.63907   0.40823   0.02460 
C          C       0.13907   0.09177   0.52460 
C          C       0.86093   0.09177   0.97540 
C          C       0.63907   0.59177   0.52460 
C          C       0.36093   0.59177   0.97540 
C          C       0.17937   0.01521   0.39286 
C          C       0.82063   0.01521   0.10714 
C          C       0.67937   0.51521   0.39286 
C          C       0.32063   0.51521   0.10714 
C          C       0.82063   0.98479   0.60714 
C          C       0.17937   0.98479   0.89286 
C          C       0.32063   0.48479   0.60714 
C          C       0.67937   0.48479   0.89286 
C          C       0.15381   0.88562   0.36479 
C          C       0.84619   0.88562   0.13521 
C          C       0.65381   0.38562   0.36479 
C          C       0.34619   0.38562   0.13521 
C          C       0.84619   0.11438   0.63521 
C          C       0.15381   0.11438   0.86479 
C          C       0.34619   0.61438   0.63521 
C          C       0.65381   0.61438   0.86479 
C          C       0.14878   0.70819   0.38496 
C          C       0.85122   0.70819   0.11504 
C          C       0.64878   0.20819   0.38496 
C          C       0.35122   0.20819   0.11504 
C          C       0.85122   0.29181   0.61504 
C          C       0.14878   0.29181   0.88496 
C          C       0.35122   0.79181   0.61504 
C          C       0.64878   0.79181   0.88496 
C          C       0.17039   0.66073   0.43345 
C          C       0.82961   0.66073   0.06655 
C          C       0.67039   0.16073   0.43345 
C          C       0.32961   0.16073   0.06655 
C          C       0.82961   0.33927   0.56655 
C          C       0.17039   0.33927   0.93345 
C          C       0.32961   0.83927   0.56655 
C          C       0.67039   0.83927   0.93345 
C          C       0.19623   0.79059   0.46148 
C          C       0.80377   0.79059   0.03852 
C          C       0.69623   0.29059   0.46148 
C          C       0.30377   0.29059   0.03852 
C          C       0.80377   0.20941   0.53852 
C          C       0.19623   0.20941   0.96148 
C          C       0.30377   0.70941   0.53852 
C          C       0.69623   0.70941   0.96148 
H          H       0.77597   0.05193   0.39322 
H          H       0.22403   0.05193   0.10678 
H          H       0.27597   0.55193   0.39322 
H          H       0.72403   0.55193   0.10678 
H          H       0.22403   0.94807   0.60678 
H          H       0.77597   0.94807   0.89322 
H          H       0.72403   0.44807   0.60678 
H          H       0.27597   0.44807   0.89322 
H          H       0.83127   0.22963   0.35708 
H          H       0.16873   0.22963   0.14292 
H          H       0.33127   0.72963   0.35708 
H          H       0.66873   0.72963   0.14292 
H          H       0.16873   0.77037   0.64292 
H          H       0.83127   0.77037   0.85708 
H          H       0.66873   0.27037   0.64292 
H          H       0.33127   0.27037   0.85708 
C          C       0.91522   0.24987   0.39384 
C          C       0.08478   0.24987   0.10616 
C          C       0.41522   0.74987   0.39384 
C          C       0.58478   0.74987   0.10616 
C          C       0.08478   0.75013   0.60616 
C          C       0.91522   0.75013   0.89384 
C          C       0.58478   0.25013   0.60616 
C          C       0.41522   0.25013   0.89384 
H          H       0.92517   0.99967   0.47279 
H          H       0.07483   0.99967   0.02721 
H          H       0.42517   0.49967   0.47279 
H          H       0.57483   0.49967   0.02721 
H          H       0.07483   0.00033   0.52721 
H          H       0.92517   0.00033   0.97279 
H          H       0.57483   0.50033   0.52721 
H          H       0.42517   0.50033   0.97279 
H          H       0.86904   0.82101   0.50906 
H          H       0.13096   0.82101   0.99094 
H          H       0.36904   0.32101   0.50906 
H          H       0.63096   0.32101   0.99094 
H          H       0.13096   0.17899   0.49094 
H          H       0.86904   0.17899   0.00906 
H          H       0.63096   0.67899   0.49094 
H          H       0.36904   0.67899   0.00906 
H          H       0.18216   0.15244   0.37696 
H          H       0.81784   0.15244   0.12304 
H          H       0.68216   0.65244   0.37696 
H          H       0.31784   0.65244   0.12304 
H          H       0.81784   0.84756   0.62304 
H          H       0.18216   0.84756   0.87696 
H          H       0.31784   0.34756   0.62304 
H          H       0.68216   0.34756   0.87696 
H          H       0.13755   0.92491   0.32741 
H          H       0.86245   0.92491   0.17259 
H          H       0.63755   0.42491   0.32741 
H          H       0.36245   0.42491   0.17259 
H          H       0.86245   0.07509   0.67259 
H          H       0.13755   0.07509   0.82741 
H          H       0.36245   0.57509   0.67259 
H          H       0.63755   0.57509   0.82741 
C          C       0.12110   0.57697   0.35409 
C          C       0.87890   0.57697   0.14591 
C          C       0.62110   0.07697   0.35409 
C          C       0.37890   0.07697   0.14591 
C          C       0.87890   0.42303   0.64591 
C          C       0.12110   0.42303   0.85409 
C          C       0.37890   0.92303   0.64591 
C          C       0.62110   0.92303   0.85409 
H          H       0.16736   0.52405   0.44962 
H          H       0.83264   0.52405   0.05038 
H          H       0.66736   0.02405   0.44962 
H          H       0.33264   0.02405   0.05038 
H          H       0.83264   0.47595   0.55038 
H          H       0.16736   0.47595   0.94962 
H          H       0.33264   0.97595   0.55038 
H          H       0.66736   0.97595   0.94962 
H          H       0.21245   0.75215   0.49891 
H          H       0.78755   0.75215   0.00109 
H          H       0.71245   0.25215   0.49891 
H          H       0.28755   0.25215   0.00109 
H          H       0.78755   0.24785   0.50109 
H          H       0.21245   0.24785   0.99891 
H          H       0.28755   0.74785   0.50109 
H          H       0.71245   0.74785   0.99891 
F          F       0.26963   0.14461   0.40262 
F          F       0.73037   0.14461   0.09738 
F          F       0.76963   0.64461   0.40262 
F          F       0.23037   0.64461   0.09738 
F          F       0.73037   0.85539   0.59738 
F          F       0.26963   0.85539   0.90262 
F          F       0.23037   0.35539   0.59738 
F          F       0.76963   0.35539   0.90262 
H          H       0.91033   0.86150   0.25250 
H          H       0.08967   0.86150   0.24750 
H          H       0.41033   0.36150   0.25250 
H          H       0.58967   0.36150   0.24750 
H          H       0.08967   0.13850   0.74750 
H          H       0.91033   0.13850   0.75250 
H          H       0.58967   0.63850   0.74750 
H          H       0.41033   0.63850   0.75250 
H          H       0.05241   0.16513   0.21750 
H          H       0.94759   0.16513   0.28250 
H          H       0.55241   0.66513   0.21750 
H          H       0.44759   0.66513   0.28250 
H          H       0.94759   0.83487   0.78250 
H          H       0.05241   0.83487   0.71750 
H          H       0.44759   0.33487   0.78250 
H          H       0.55241   0.33487   0.71750 
H          H       0.02993   0.63051   0.31920 
H          H       0.97007   0.63051   0.18080 
H          H       0.52993   0.13051   0.31920 
H          H       0.47007   0.13051   0.18080 
H          H       0.97007   0.36949   0.68080 
H          H       0.02993   0.36949   0.81920 
H          H       0.47007   0.86949   0.68080 
H          H       0.52993   0.86949   0.81920 
H          H       0.87306   0.65210   0.30264 
H          H       0.12694   0.65210   0.19736 
H          H       0.37306   0.15210   0.30264 
H          H       0.62694   0.15210   0.19736 
H          H       0.12694   0.34790   0.69736 
H          H       0.87306   0.34790   0.80264 
H          H       0.62694   0.84790   0.69736 
H          H       0.37306   0.84790   0.80264 
H          H       0.01370   0.94929   0.36155 
H          H       0.98630   0.94929   0.13845 
H          H       0.51370   0.44929   0.36155 
H          H       0.48630   0.44929   0.13845 
H          H       0.98630   0.05071   0.63845 
H          H       0.01370   0.05071   0.86155 
H          H       0.48630   0.55071   0.63845 
H          H       0.51370   0.55071   0.86155 
H          H       0.06199   0.16231   0.41025 
H          H       0.93801   0.16231   0.08975 
H          H       0.56199   0.66231   0.41025 
H          H       0.43801   0.66231   0.08975 
H          H       0.93801   0.83769   0.58975 
H          H       0.06199   0.83769   0.91025 
H          H       0.43801   0.33769   0.58975 
H          H       0.56199   0.33769   0.91025 
H          H       0.99097   0.41151   0.36769 
H          H       0.00903   0.41151   0.13231 
H          H       0.49097   0.91151   0.36769 
H          H       0.50903   0.91151   0.13231 
H          H       0.00903   0.58849   0.63231 
H          H       0.99097   0.58849   0.86769 
H          H       0.50903   0.08849   0.63231 
H          H       0.49097   0.08849   0.86769 
H          H       0.10133   0.37075   0.26686 
H          H       0.89867   0.37075   0.23314 
H          H       0.60133   0.87075   0.26686 
H          H       0.39867   0.87075   0.23314 
H          H       0.89867   0.62925   0.73314 
H          H       0.10133   0.62925   0.76686 
H          H       0.39867   0.12925   0.73314 
H          H       0.60133   0.12925   0.76686 
H          H       0.94835   0.22455   0.40634 
H          H       0.05165   0.22455   0.09366 
H          H       0.44835   0.72455   0.40634 
H          H       0.55165   0.72455   0.09366 
H          H       0.05165   0.77545   0.59366 
H          H       0.94835   0.77545   0.90634 
H          H       0.55165   0.27545   0.59366 
H          H       0.44835   0.27545   0.90634 
H          H       0.10801   0.62029   0.31569 
H          H       0.89199   0.62029   0.18431 
H          H       0.60801   0.12029   0.31569 
H          H       0.39199   0.12029   0.18431 
H          H       0.89199   0.37971   0.68431 
H          H       0.10801   0.37971   0.81569 
H          H       0.39199   0.87971   0.68431 
H          H       0.60801   0.87971   0.81569 
C          C       0.00000   0.90172   0.25000 
C          C       0.50000   0.40172   0.25000 
C          C       0.00000   0.09828   0.75000 
C          C       0.50000   0.59828   0.75000 
