data_crystal
 
_cell_length_a    30.25000
_cell_length_b    7.52000
_cell_length_c    27.10000
_cell_angle_alpha 90.00000
_cell_angle_beta  91.45000
_cell_angle_gamma 90.00000
 
_space_group_name_Hall 'P 1'
_space_group_name_H-M_alt  'P 1'
 
loop_
_symmetry_equiv_pos_as_xyz
 'x,y,z' 
 
loop_
_atom_site_label
_atom_site_type_symbol
_atom_site_fract_x
_atom_site_fract_y
_atom_site_fract_z
C          C       0.03000   0.04174   0.28306 
C          C       0.97000   0.04174   0.21694 
C          C       0.53000   0.54174   0.28306 
C          C       0.47000   0.54174   0.21694 
C          C       0.97000   0.95826   0.71694 
C          C       0.03000   0.95826   0.78306 
C          C       0.47000   0.45826   0.71694 
C          C       0.53000   0.45826   0.78306 
C          C       0.97236   0.78367   0.27977 
C          C       0.02764   0.78367   0.22023 
C          C       0.47236   0.28367   0.27977 
C          C       0.52764   0.28367   0.22023 
C          C       0.02764   0.21633   0.72023 
C          C       0.97236   0.21633   0.77977 
C          C       0.52764   0.71633   0.72023 
C          C       0.47236   0.71633   0.77977 
C          C       0.92484   0.77883   0.27446 
C          C       0.07516   0.77883   0.22554 
C          C       0.42484   0.27883   0.27446 
C          C       0.57516   0.27883   0.22554 
C          C       0.07516   0.22117   0.72554 
C          C       0.92484   0.22117   0.77446 
C          C       0.57516   0.72117   0.72554 
C          C       0.42484   0.72117   0.77446 
C          C       0.92437   0.53307   0.33305 
C          C       0.07563   0.53307   0.16695 
C          C       0.42437   0.03307   0.33305 
C          C       0.57563   0.03307   0.16695 
C          C       0.07563   0.46693   0.66695 
C          C       0.92437   0.46693   0.83305 
C          C       0.57563   0.96693   0.66695 
C          C       0.42437   0.96693   0.83305 
C          C       0.05756   0.16831   0.26141 
C          C       0.94244   0.16831   0.23859 
C          C       0.55756   0.66831   0.26141 
C          C       0.44244   0.66831   0.23859 
C          C       0.94244   0.83169   0.73859 
C          C       0.05756   0.83169   0.76141 
C          C       0.44244   0.33169   0.73859 
C          C       0.55756   0.33169   0.76141 
C          C       0.99513   0.65419   0.31133 
C          C       0.00487   0.65419   0.18867 
C          C       0.49513   0.15419   0.31133 
C          C       0.50487   0.15419   0.18867 
C          C       0.00487   0.34581   0.68867 
C          C       0.99513   0.34581   0.81133 
C          C       0.50487   0.84581   0.68867 
C          C       0.49513   0.84581   0.81133 
C          C       0.90148   0.65743   0.30130 
C          C       0.09852   0.65743   0.19870 
C          C       0.40148   0.15743   0.30130 
C          C       0.59852   0.15743   0.19870 
C          C       0.09852   0.34257   0.69870 
C          C       0.90148   0.34257   0.80130 
C          C       0.59852   0.84257   0.69870 
C          C       0.40148   0.84257   0.80130 
N          N       0.10905   0.43162   0.36919 
N          N       0.89095   0.43162   0.13081 
N          N       0.60905   0.93162   0.36919 
N          N       0.39095   0.93162   0.13081 
N          N       0.89095   0.56838   0.63081 
N          N       0.10905   0.56838   0.86919 
N          N       0.39095   0.06838   0.63081 
N          N       0.60905   0.06838   0.86919 
C          C       0.02906   0.05142   0.33385 
C          C       0.97094   0.05142   0.16615 
C          C       0.52906   0.55142   0.33385 
C          C       0.47094   0.55142   0.16615 
C          C       0.97094   0.94858   0.66615 
C          C       0.02906   0.94858   0.83385 
C          C       0.47094   0.44858   0.66615 
C          C       0.52906   0.44858   0.83385 
C          C       0.08361   0.29889   0.33962 
C          C       0.91639   0.29889   0.16038 
C          C       0.58361   0.79889   0.33962 
C          C       0.41639   0.79889   0.16038 
C          C       0.91639   0.70111   0.66038 
C          C       0.08361   0.70111   0.83962 
C          C       0.41639   0.20111   0.66038 
C          C       0.58361   0.20111   0.83962 
C          C       0.05629   0.17587   0.36166 
C          C       0.94371   0.17587   0.13834 
C          C       0.55629   0.67587   0.36166 
C          C       0.44371   0.67587   0.13834 
C          C       0.94371   0.82413   0.63834 
C          C       0.05629   0.82413   0.86166 
C          C       0.44371   0.32413   0.63834 
C          C       0.55629   0.32413   0.86166 
N          N       0.89784   0.40764   0.35778 
N          N       0.10216   0.40764   0.14222 
N          N       0.39784   0.90764   0.35778 
N          N       0.60216   0.90764   0.14222 
N          N       0.10216   0.59236   0.64222 
N          N       0.89784   0.59236   0.85778 
N          N       0.60216   0.09236   0.64222 
N          N       0.39784   0.09236   0.85778 
C          C       0.97158   0.53177   0.33802 
C          C       0.02842   0.53177   0.16198 
C          C       0.47158   0.03177   0.33802 
C          C       0.52842   0.03177   0.16198 
C          C       0.02842   0.46823   0.66198 
C          C       0.97158   0.46823   0.83802 
C          C       0.52842   0.96823   0.66198 
C          C       0.47158   0.96823   0.83802 
C          C       0.08473   0.29155   0.28926 
C          C       0.91527   0.29155   0.21074 
C          C       0.58473   0.79155   0.28926 
C          C       0.41527   0.79155   0.21074 
C          C       0.91527   0.70845   0.71074 
C          C       0.08473   0.70845   0.78926 
C          C       0.41527   0.20845   0.71074 
C          C       0.58473   0.20845   0.78926 
C          C       0.22453   0.11280   0.47368 
C          C       0.77547   0.11280   0.02632 
C          C       0.72453   0.61280   0.47368 
C          C       0.27547   0.61280   0.02632 
C          C       0.77547   0.88720   0.52632 
C          C       0.22453   0.88720   0.97368 
C          C       0.27547   0.38720   0.52632 
C          C       0.72453   0.38720   0.97368 
C          C       0.25699   0.21370   0.45208 
C          C       0.74301   0.21370   0.04792 
C          C       0.75699   0.71370   0.45208 
C          C       0.24301   0.71370   0.04792 
C          C       0.74301   0.78630   0.54792 
C          C       0.25699   0.78630   0.95208 
C          C       0.24301   0.28630   0.54792 
C          C       0.75699   0.28630   0.95208 
C          C       0.21741   0.15066   0.52222 
C          C       0.78259   0.15066   0.97778 
C          C       0.71741   0.65066   0.52222 
C          C       0.28259   0.65066   0.97778 
C          C       0.78259   0.84934   0.47778 
C          C       0.21741   0.84934   0.02222 
C          C       0.28259   0.34934   0.47778 
C          C       0.71741   0.34934   0.02222 
C          C       0.19760   0.97644   0.44393 
C          C       0.80240   0.97644   0.05607 
C          C       0.69760   0.47644   0.44393 
C          C       0.30240   0.47644   0.05607 
C          C       0.80240   0.02356   0.55607 
C          C       0.19760   0.02356   0.94393 
C          C       0.30240   0.52356   0.55607 
C          C       0.69760   0.52356   0.94393 
C          C       0.81628   0.94893   0.45290 
C          C       0.18372   0.94893   0.04710 
C          C       0.31628   0.44893   0.45290 
C          C       0.68372   0.44893   0.04710 
C          C       0.18372   0.05107   0.54710 
C          C       0.81628   0.05107   0.95290 
C          C       0.68372   0.55107   0.54710 
C          C       0.31628   0.55107   0.95290 
C          C       0.80232   0.06122   0.41327 
C          C       0.19768   0.06122   0.08673 
C          C       0.30232   0.56122   0.41327 
C          C       0.69768   0.56122   0.08673 
C          C       0.19768   0.93878   0.58673 
C          C       0.80232   0.93878   0.91327 
C          C       0.69768   0.43878   0.58673 
C          C       0.30232   0.43878   0.91327 
C          C       0.83349   0.16756   0.39189 
C          C       0.16651   0.16756   0.10811 
C          C       0.33349   0.66756   0.39189 
C          C       0.66651   0.66756   0.10811 
C          C       0.16651   0.83244   0.60811 
C          C       0.83349   0.83244   0.89189 
C          C       0.66651   0.33244   0.60811 
C          C       0.33349   0.33244   0.89189 
C          C       0.87932   0.16211   0.40959 
C          C       0.12068   0.16211   0.09041 
C          C       0.37932   0.66211   0.40959 
C          C       0.62068   0.66211   0.09041 
C          C       0.12068   0.83789   0.59041 
C          C       0.87932   0.83789   0.90959 
C          C       0.62068   0.33789   0.59041 
C          C       0.37932   0.33789   0.90959 
C          C       0.89346   0.04582   0.44851 
C          C       0.10654   0.04582   0.05149 
C          C       0.39346   0.54582   0.44851 
C          C       0.60654   0.54582   0.05149 
C          C       0.10654   0.95418   0.55149 
C          C       0.89346   0.95418   0.94851 
C          C       0.60654   0.45418   0.55149 
C          C       0.39346   0.45418   0.94851 
C          C       0.86205   0.93992   0.47017 
C          C       0.13795   0.93992   0.02983 
C          C       0.36205   0.43992   0.47017 
C          C       0.63795   0.43992   0.02983 
C          C       0.13795   0.06008   0.52983 
C          C       0.86205   0.06008   0.97017 
C          C       0.63795   0.56008   0.52983 
C          C       0.36205   0.56008   0.97017 
C          C       0.17650   0.02849   0.39849 
C          C       0.82350   0.02849   0.10151 
C          C       0.67650   0.52849   0.39849 
C          C       0.32350   0.52849   0.10151 
C          C       0.82350   0.97151   0.60151 
C          C       0.17650   0.97151   0.89849 
C          C       0.32350   0.47151   0.60151 
C          C       0.67650   0.47151   0.89849 
C          C       0.15195   0.90109   0.36916 
C          C       0.84805   0.90109   0.13084 
C          C       0.65195   0.40109   0.36916 
C          C       0.34805   0.40109   0.13084 
C          C       0.84805   0.09891   0.63084 
C          C       0.15195   0.09891   0.86916 
C          C       0.34805   0.59891   0.63084 
C          C       0.65195   0.59891   0.86916 
C          C       0.14777   0.71973   0.38484 
C          C       0.85223   0.71973   0.11516 
C          C       0.64777   0.21973   0.38484 
C          C       0.35223   0.21973   0.11516 
C          C       0.85223   0.28027   0.61516 
C          C       0.14777   0.28027   0.88484 
C          C       0.35223   0.78027   0.61516 
C          C       0.64777   0.78027   0.88484 
C          C       0.16926   0.66607   0.43003 
C          C       0.83074   0.66607   0.06997 
C          C       0.66926   0.16607   0.43003 
C          C       0.33074   0.16607   0.06997 
C          C       0.83074   0.33393   0.56997 
C          C       0.16926   0.33393   0.93003 
C          C       0.33074   0.83393   0.56997 
C          C       0.66926   0.83393   0.93003 
C          C       0.19423   0.79339   0.45920 
C          C       0.80577   0.79339   0.04080 
C          C       0.69423   0.29339   0.45920 
C          C       0.30577   0.29339   0.04080 
C          C       0.80577   0.20661   0.54080 
C          C       0.19423   0.20661   0.95920 
C          C       0.30577   0.70661   0.54080 
C          C       0.69423   0.70661   0.95920 
H          H       0.76709   0.06937   0.39957 
H          H       0.23291   0.06937   0.10043 
H          H       0.26709   0.56937   0.39957 
H          H       0.73291   0.56937   0.10043 
H          H       0.23291   0.93063   0.60043 
H          H       0.76709   0.93063   0.89957 
H          H       0.73291   0.43063   0.60043 
H          H       0.26709   0.43063   0.89957 
H          H       0.82155   0.25509   0.36175 
H          H       0.17845   0.25509   0.13825 
H          H       0.32155   0.75509   0.36175 
H          H       0.67845   0.75509   0.13825 
H          H       0.17845   0.74491   0.63825 
H          H       0.82155   0.74491   0.86175 
H          H       0.67845   0.24491   0.63825 
H          H       0.32155   0.24491   0.86175 
C          C       0.91205   0.28023   0.38831 
C          C       0.08795   0.28023   0.11169 
C          C       0.41205   0.78023   0.38831 
C          C       0.58795   0.78023   0.11169 
C          C       0.08795   0.71977   0.61169 
C          C       0.91205   0.71977   0.88831 
C          C       0.58795   0.21977   0.61169 
C          C       0.41205   0.21977   0.88831 
H          H       0.92860   0.03926   0.46259 
H          H       0.07140   0.03926   0.03741 
H          H       0.42860   0.53926   0.46259 
H          H       0.57140   0.53926   0.03741 
H          H       0.07140   0.96074   0.53741 
H          H       0.92860   0.96074   0.96259 
H          H       0.57140   0.46074   0.53741 
H          H       0.42860   0.46074   0.96259 
H          H       0.87327   0.85248   0.50061 
H          H       0.12673   0.85248   0.99939 
H          H       0.37327   0.35248   0.50061 
H          H       0.62673   0.35248   0.99939 
H          H       0.12673   0.14752   0.49939 
H          H       0.87327   0.14752   0.00061 
H          H       0.62673   0.64752   0.49939 
H          H       0.37327   0.64752   0.00061 
H          H       0.17874   0.16850   0.38586 
H          H       0.82126   0.16850   0.11414 
H          H       0.67874   0.66850   0.38586 
H          H       0.32126   0.66850   0.11414 
H          H       0.82126   0.83150   0.61414 
H          H       0.17874   0.83150   0.88586 
H          H       0.32126   0.33150   0.61414 
H          H       0.67874   0.33150   0.88586 
H          H       0.13572   0.94498   0.33437 
H          H       0.86428   0.94498   0.16563 
H          H       0.63572   0.44498   0.33437 
H          H       0.36428   0.44498   0.16563 
H          H       0.86428   0.05502   0.66563 
H          H       0.13572   0.05502   0.83437 
H          H       0.36428   0.55502   0.66563 
H          H       0.63572   0.55502   0.83437 
C          C       0.12055   0.59078   0.35356 
C          C       0.87945   0.59078   0.14644 
C          C       0.62055   0.09078   0.35356 
C          C       0.37945   0.09078   0.14644 
C          C       0.87945   0.40922   0.64644 
C          C       0.12055   0.40922   0.85356 
C          C       0.37945   0.90922   0.64644 
C          C       0.62055   0.90922   0.85356 
H          H       0.16697   0.52608   0.44269 
H          H       0.83303   0.52608   0.05731 
H          H       0.66697   0.02608   0.44269 
H          H       0.33303   0.02608   0.05731 
H          H       0.83303   0.47392   0.55731 
H          H       0.16697   0.47392   0.94269 
H          H       0.33303   0.97392   0.55731 
H          H       0.66697   0.97392   0.94269 
H          H       0.21074   0.74859   0.49368 
H          H       0.78926   0.74859   0.00632 
H          H       0.71074   0.24859   0.49368 
H          H       0.28926   0.24859   0.00632 
H          H       0.78926   0.25141   0.50632 
H          H       0.21074   0.25141   0.99368 
H          H       0.28926   0.75141   0.50632 
H          H       0.71074   0.75141   0.99368 
H          H       0.26306   0.18413   0.41503 
H          H       0.73694   0.18413   0.08497 
H          H       0.76306   0.68413   0.41503 
H          H       0.23694   0.68413   0.08497 
H          H       0.73694   0.81587   0.58497 
H          H       0.26306   0.81587   0.91503 
H          H       0.23694   0.31587   0.58497 
H          H       0.76306   0.31587   0.91503 
H          H       0.90487   0.86415   0.24884 
H          H       0.09513   0.86415   0.25116 
H          H       0.40487   0.36415   0.24884 
H          H       0.59513   0.36415   0.25116 
H          H       0.09513   0.13585   0.75116 
H          H       0.90487   0.13585   0.74884 
H          H       0.59513   0.63585   0.75116 
H          H       0.40487   0.63585   0.74884 
H          H       0.05872   0.16832   0.22255 
H          H       0.94128   0.16832   0.27745 
H          H       0.55872   0.66832   0.22255 
H          H       0.44128   0.66832   0.27745 
H          H       0.94128   0.83168   0.77745 
H          H       0.05872   0.83168   0.72255 
H          H       0.44128   0.33168   0.77745 
H          H       0.55872   0.33168   0.72255 
H          H       0.03148   0.64936   0.31544 
H          H       0.96852   0.64936   0.18456 
H          H       0.53148   0.14936   0.31544 
H          H       0.46852   0.14936   0.18456 
H          H       0.96852   0.35064   0.68456 
H          H       0.03148   0.35064   0.81544 
H          H       0.46852   0.85064   0.68456 
H          H       0.53148   0.85064   0.81544 
H          H       0.86504   0.65699   0.29641 
H          H       0.13496   0.65699   0.20359 
H          H       0.36504   0.15699   0.29641 
H          H       0.63496   0.15699   0.20359 
H          H       0.13496   0.34301   0.70359 
H          H       0.86504   0.34301   0.79641 
H          H       0.63496   0.84301   0.70359 
H          H       0.36504   0.84301   0.79641 
H          H       0.00674   0.96754   0.35268 
H          H       0.99326   0.96754   0.14732 
H          H       0.50674   0.46754   0.35268 
H          H       0.49326   0.46754   0.14732 
H          H       0.99326   0.03246   0.64732 
H          H       0.00674   0.03246   0.85268 
H          H       0.49326   0.53246   0.64732 
H          H       0.50674   0.53246   0.85268 
H          H       0.05491   0.18090   0.40047 
H          H       0.94509   0.18090   0.09953 
H          H       0.55491   0.68090   0.40047 
H          H       0.44509   0.68090   0.09953 
H          H       0.94509   0.81910   0.59953 
H          H       0.05491   0.81910   0.90047 
H          H       0.44509   0.31910   0.59953 
H          H       0.55491   0.31910   0.90047 
H          H       0.99053   0.43692   0.36194 
H          H       0.00947   0.43692   0.13806 
H          H       0.49053   0.93692   0.36194 
H          H       0.50947   0.93692   0.13806 
H          H       0.00947   0.56308   0.63806 
H          H       0.99053   0.56308   0.86194 
H          H       0.50947   0.06308   0.63806 
H          H       0.49053   0.06308   0.86194 
H          H       0.10688   0.37895   0.27119 
H          H       0.89312   0.37895   0.22881 
H          H       0.60688   0.87895   0.27119 
H          H       0.39312   0.87895   0.22881 
H          H       0.89312   0.62105   0.72881 
H          H       0.10688   0.62105   0.77119 
H          H       0.39312   0.12105   0.72881 
H          H       0.60688   0.12105   0.77119 
H          H       0.94749   0.26411   0.39986 
H          H       0.05251   0.26411   0.10014 
H          H       0.44749   0.76411   0.39986 
H          H       0.55251   0.76411   0.10014 
H          H       0.05251   0.73589   0.60014 
H          H       0.94749   0.73589   0.89986 
H          H       0.55251   0.23589   0.60014 
H          H       0.44749   0.23589   0.89986 
H          H       0.10850   0.63563   0.31745 
H          H       0.89150   0.63563   0.18255 
H          H       0.60850   0.13563   0.31745 
H          H       0.39150   0.13563   0.18255 
H          H       0.89150   0.36437   0.68255 
H          H       0.10850   0.36437   0.81745 
H          H       0.39150   0.86437   0.68255 
H          H       0.60850   0.86437   0.81745 
C          C       0.00000   0.91064   0.25000 
C          C       0.50000   0.41064   0.25000 
C          C       0.00000   0.08936   0.75000 
C          C       0.50000   0.58936   0.75000 
