data_crystal
 
_cell_length_a    19.05770
_cell_length_b    18.52070
_cell_length_c    7.07440
_cell_angle_alpha 88.57870
_cell_angle_beta  89.46300
_cell_angle_gamma 119.66020
 
_symmetry_space_group_name_Hall 'P 1'
_symmetry_space_group_name_H-M  'P 1'
 
loop_
_symmetry_equiv_pos_as_xyz
 'x,y,z' 
 
loop_
_atom_site_label
_atom_site_type_symbol
_atom_site_fract_x
_atom_site_fract_y
_atom_site_fract_z
C          C       0.04293   0.08937   0.30271 
C          C       0.09093   0.05041   0.30536 
C          C       0.18095   0.10315   0.30664 
C          C       0.23197   0.08399   0.21881 
H          H       0.20603   0.16030   0.38273 
H          H       0.20922   0.02830   0.13851 
C          C       0.36793   0.09750   0.23116 
H          H       0.33972   0.03034   0.23469 
C          C       0.45210   0.14518   0.23302 
H          H       0.48715   0.11371   0.23779 
C          C       0.49029   0.23240   0.22729 
C          C       0.44237   0.27075   0.22182 
H          H       0.46970   0.33779   0.21557 
C          C       0.35832   0.22304   0.22167 
H          H       0.32320   0.25435   0.21264 
C          C       0.32046   0.13598   0.22668 
N          N       0.61482   0.36762   0.21548 
C          C       0.57942   0.28355   0.22373 
N          N       0.91402   0.95536   0.21455 
C          C       0.95426   0.03986   0.27148 
C          C       0.89776   0.07364   0.27427 
C          C       0.91331   0.14614   0.19124 
H          H       0.84046   0.03594   0.34848 
H          H       0.96868   0.18278   0.11000 
C          C       0.89347   0.26835   0.20585 
H          H       0.95851   0.30792   0.19970 
C          C       0.84474   0.30501   0.21319 
H          H       0.87361   0.37216   0.21222 
C          C       0.76010   0.25566   0.21974 
C          C       0.72554   0.16860   0.22235 
H          H       0.66060   0.12871   0.22631 
C          C       0.77449   0.13191   0.21667 
H          H       0.74600   0.06489   0.21402 
C          C       0.85904   0.18166   0.20750 
N          N       0.62664   0.24751   0.22588 
C          C       0.70853   0.29501   0.22017 
C          C       0.04581   0.96214   0.25478 
C          C       0.95761   0.91556   0.22678 
C          C       0.91556   0.82367   0.24421 
C          C       0.84102   0.77422   0.18313 
H          H       0.94774   0.79546   0.30856 
H          H       0.80599   0.80118   0.12757 
C          C       0.72064   0.63217   0.19689 
H          H       0.68222   0.65989   0.20158 
C          C       0.68525   0.54556   0.20370 
H          H       0.62005   0.50846   0.21309 
C          C       0.73353   0.50759   0.19962 
C          C       0.81771   0.55810   0.18504 
H          H       0.85665   0.53105   0.17855 
C          C       0.85294   0.64444   0.17731 
H          H       0.91792   0.68086   0.16056 
C          C       0.80481   0.68253   0.18731 
N          N       0.74282   0.37923   0.21171 
C          C       0.69625   0.41594   0.20938 
C          C       0.09139   0.91919   0.28213 
N          N       0.12741   0.88451   0.30347 
C          C       0.08173   0.17873   0.31851 
N          N       0.11314   0.25016   0.33139 
C          C       0.04293   0.08937   0.80271 
C          C       0.09093   0.05041   0.80536 
C          C       0.18095   0.10315   0.80664 
C          C       0.23197   0.08399   0.71881 
H          H       0.20603   0.16030   0.88274 
H          H       0.20922   0.02830   0.63851 
C          C       0.36793   0.09750   0.73116 
H          H       0.33972   0.03034   0.73469 
C          C       0.45210   0.14518   0.73302 
H          H       0.48715   0.11371   0.73779 
C          C       0.49029   0.23240   0.72729 
C          C       0.44237   0.27075   0.72181 
H          H       0.46970   0.33779   0.71557 
C          C       0.35832   0.22304   0.72167 
H          H       0.32320   0.25435   0.71264 
C          C       0.32046   0.13598   0.72669 
N          N       0.61482   0.36762   0.71548 
C          C       0.57942   0.28355   0.72374 
N          N       0.91402   0.95536   0.71455 
C          C       0.95426   0.03986   0.77148 
C          C       0.89776   0.07364   0.77428 
C          C       0.91331   0.14614   0.69124 
H          H       0.84046   0.03594   0.84847 
H          H       0.96868   0.18278   0.61000 
C          C       0.89347   0.26835   0.70585 
H          H       0.95851   0.30792   0.69970 
C          C       0.84474   0.30501   0.71320 
H          H       0.87361   0.37216   0.71222 
C          C       0.76010   0.25566   0.71974 
C          C       0.72554   0.16860   0.72235 
H          H       0.66060   0.12871   0.72632 
C          C       0.77449   0.13191   0.71667 
H          H       0.74600   0.06489   0.71402 
C          C       0.85904   0.18166   0.70750 
N          N       0.62664   0.24751   0.72588 
C          C       0.70853   0.29501   0.72017 
C          C       0.04581   0.96214   0.75478 
C          C       0.95761   0.91556   0.72678 
C          C       0.91556   0.82367   0.74421 
C          C       0.84102   0.77422   0.68313 
H          H       0.94774   0.79546   0.80856 
H          H       0.80599   0.80118   0.62757 
C          C       0.72064   0.63217   0.69690 
H          H       0.68222   0.65989   0.70158 
C          C       0.68525   0.54556   0.70371 
H          H       0.62005   0.50846   0.71309 
C          C       0.73353   0.50759   0.69963 
C          C       0.81771   0.55810   0.68504 
H          H       0.85665   0.53105   0.67854 
C          C       0.85294   0.64444   0.67731 
H          H       0.91792   0.68086   0.66056 
C          C       0.80481   0.68253   0.68731 
N          N       0.74282   0.37923   0.71171 
C          C       0.69625   0.41594   0.70937 
C          C       0.09139   0.91919   0.78213 
N          N       0.12741   0.88451   0.80348 
C          C       0.08173   0.17873   0.81851 
N          N       0.11314   0.25016   0.83139 
