data_crystal
 
_cell_length_a    18.59480
_cell_length_b    32.40720
_cell_length_c    10.85550
_cell_angle_alpha 90.00000
_cell_angle_beta  90.00000
_cell_angle_gamma 90.00000
 
_space_group_name_Hall 'P 1'
_space_group_name_H-M_alt  'P 1'
 
loop_
_symmetry_equiv_pos_as_xyz
 'x,y,z' 
 
loop_
_atom_site_label
_atom_site_type_symbol
_atom_site_fract_x
_atom_site_fract_y
_atom_site_fract_z
C          C       0.96334   0.63121   0.99749 
C          C       0.96334   0.36879   0.00251 
C          C       0.03666   0.36879   0.99749 
C          C       0.03666   0.63121   0.00251 
C          C       0.96334   0.13121   0.49749 
C          C       0.96334   0.86879   0.50251 
C          C       0.03666   0.86879   0.49749 
C          C       0.03666   0.13121   0.50251 
C          C       0.53684   0.89974   0.99878 
C          C       0.53684   0.10026   0.00122 
C          C       0.46316   0.10026   0.99878 
C          C       0.46316   0.89974   0.00122 
C          C       0.53684   0.39974   0.49878 
C          C       0.53684   0.60026   0.50122 
C          C       0.46316   0.60026   0.49878 
C          C       0.46316   0.39974   0.50122 
S          S       0.41968   0.94890   0.99991 
S          S       0.41968   0.05110   0.00009 
S          S       0.58032   0.05110   0.99991 
S          S       0.58032   0.94890   0.00009 
S          S       0.41968   0.44890   0.49991 
S          S       0.41968   0.55110   0.50009 
S          S       0.58032   0.55110   0.49991 
S          S       0.58032   0.44890   0.50009 
C          C       0.86730   0.57568   0.99296 
C          C       0.86730   0.42432   0.00704 
C          C       0.13270   0.42432   0.99296 
C          C       0.13270   0.57568   0.00704 
C          C       0.86730   0.07568   0.49296 
C          C       0.86730   0.92432   0.50704 
C          C       0.13270   0.92432   0.49296 
C          C       0.13270   0.07568   0.50704 
C          C       0.94006   0.58867   0.99717 
C          C       0.94006   0.41133   0.00283 
C          C       0.05994   0.41133   0.99717 
C          C       0.05994   0.58867   0.00283 
C          C       0.94006   0.08867   0.49717 
C          C       0.94006   0.91133   0.50283 
C          C       0.05994   0.91133   0.49717 
C          C       0.05994   0.08867   0.50283 
C          C       0.23089   0.52104   0.00333 
C          C       0.23089   0.47896   0.99667 
C          C       0.76911   0.47896   0.00333 
C          C       0.76911   0.52104   0.99667 
C          C       0.23089   0.02104   0.50333 
C          C       0.23089   0.97896   0.49667 
C          C       0.76911   0.97896   0.50333 
C          C       0.76911   0.02104   0.49667 
C          C       0.15659   0.53427   0.00518 
C          C       0.15659   0.46573   0.99482 
C          C       0.84341   0.46573   0.00518 
C          C       0.84341   0.53427   0.99482 
C          C       0.15659   0.03427   0.50518 
C          C       0.15659   0.96573   0.49482 
C          C       0.84341   0.96573   0.50518 
C          C       0.84341   0.03427   0.49482 
C          C       0.18728   0.60973   0.01379 
C          C       0.18728   0.39027   0.98621 
C          C       0.81272   0.39027   0.01379 
C          C       0.81272   0.60973   0.98621 
C          C       0.18728   0.10973   0.51379 
C          C       0.18728   0.89027   0.48621 
C          C       0.81272   0.89027   0.51379 
C          C       0.81272   0.10973   0.48621 
C          C       0.19419   0.63777   0.91563 
C          C       0.19419   0.36223   0.08437 
C          C       0.80581   0.36223   0.91563 
C          C       0.80581   0.63777   0.08437 
C          C       0.19419   0.13777   0.41563 
C          C       0.19419   0.86223   0.58437 
C          C       0.80581   0.86223   0.41563 
C          C       0.80581   0.13777   0.58437 
C          C       0.22809   0.61648   0.12098 
C          C       0.22809   0.38352   0.87902 
C          C       0.77191   0.38352   0.12098 
C          C       0.77191   0.61648   0.87902 
C          C       0.22809   0.11648   0.62098 
C          C       0.22809   0.88352   0.37902 
C          C       0.77191   0.88352   0.62098 
C          C       0.77191   0.11648   0.37902 
C          C       0.23716   0.67271   0.92647 
C          C       0.23716   0.32729   0.07353 
C          C       0.76284   0.32729   0.92647 
C          C       0.76284   0.67271   0.07353 
C          C       0.23716   0.17271   0.42647 
C          C       0.23716   0.82729   0.57353 
C          C       0.76284   0.82729   0.42647 
C          C       0.76284   0.17271   0.57353 
C          C       0.27131   0.65137   0.13262 
C          C       0.27131   0.34863   0.86738 
C          C       0.72869   0.34863   0.13262 
C          C       0.72869   0.65137   0.86738 
C          C       0.27131   0.15137   0.63262 
C          C       0.27131   0.84863   0.36738 
C          C       0.72869   0.84863   0.63262 
C          C       0.72869   0.15137   0.36738 
C          C       0.27403   0.68082   0.03740 
C          C       0.27403   0.31918   0.96260 
C          C       0.72597   0.31918   0.03740 
C          C       0.72597   0.68082   0.96260 
C          C       0.27403   0.18082   0.53740 
C          C       0.27403   0.81918   0.46260 
C          C       0.72597   0.81918   0.53740 
C          C       0.72597   0.18082   0.46260 
N          N       0.31499   0.71714   0.05370 
N          N       0.31499   0.28286   0.94630 
N          N       0.68501   0.28286   0.05370 
N          N       0.68501   0.71714   0.94630 
N          N       0.31499   0.21714   0.55370 
N          N       0.31499   0.78286   0.44630 
N          N       0.68501   0.78286   0.55370 
N          N       0.68501   0.21714   0.44630 
C          C       0.29227   0.75142   0.00570 
C          C       0.29227   0.24858   0.99430 
C          C       0.70773   0.24858   0.00570 
C          C       0.70773   0.75142   0.99430 
C          C       0.29227   0.25142   0.50570 
C          C       0.29227   0.74858   0.49430 
C          C       0.70773   0.74858   0.50570 
C          C       0.70773   0.25142   0.49430 
C          C       0.33341   0.78988   0.01211 
C          C       0.33341   0.21012   0.98789 
C          C       0.66659   0.21012   0.01211 
C          C       0.66659   0.78988   0.98789 
C          C       0.33341   0.28988   0.51211 
C          C       0.33341   0.71012   0.48789 
C          C       0.66659   0.71012   0.51211 
C          C       0.66659   0.28988   0.48789 
C          C       0.39562   0.79329   0.08551 
C          C       0.39562   0.20671   0.91449 
C          C       0.60438   0.20671   0.08551 
C          C       0.60438   0.79329   0.91449 
C          C       0.39562   0.29329   0.58551 
C          C       0.39562   0.70671   0.41449 
C          C       0.60438   0.70671   0.58551 
C          C       0.60438   0.29329   0.41449 
C          C       0.31180   0.82428   0.94217 
C          C       0.31180   0.17572   0.05783 
C          C       0.68820   0.17572   0.94217 
C          C       0.68820   0.82428   0.05783 
C          C       0.31180   0.32428   0.44217 
C          C       0.31180   0.67572   0.55783 
C          C       0.68820   0.67572   0.44217 
C          C       0.68820   0.32428   0.55783 
C          C       0.43633   0.82915   0.08463 
C          C       0.43633   0.17085   0.91537 
C          C       0.56367   0.17085   0.08463 
C          C       0.56367   0.82915   0.91537 
C          C       0.43633   0.32915   0.58463 
C          C       0.43633   0.67085   0.41537 
C          C       0.56367   0.67085   0.58463 
C          C       0.56367   0.32915   0.41537 
C          C       0.35284   0.86014   0.94046 
C          C       0.35284   0.13986   0.05954 
C          C       0.64716   0.13986   0.94046 
C          C       0.64716   0.86014   0.05954 
C          C       0.35284   0.36014   0.44046 
C          C       0.35284   0.63986   0.55954 
C          C       0.64716   0.63986   0.44046 
C          C       0.64716   0.36014   0.55954 
C          C       0.41707   0.86274   0.00872 
C          C       0.41707   0.13726   0.99128 
C          C       0.58293   0.13726   0.00872 
C          C       0.58293   0.86274   0.99128 
C          C       0.41707   0.36274   0.50872 
C          C       0.41707   0.63726   0.49128 
C          C       0.58293   0.63726   0.50872 
C          C       0.58293   0.36274   0.49128 
H          H       0.92886   0.65807   0.99445 
H          H       0.92886   0.34193   0.00555 
H          H       0.07114   0.34193   0.99445 
H          H       0.07114   0.65807   0.00555 
H          H       0.92886   0.15807   0.49445 
H          H       0.92886   0.84193   0.50555 
H          H       0.07114   0.84193   0.49445 
H          H       0.07114   0.15807   0.50555 
H          H       0.27735   0.54114   0.00605 
H          H       0.27735   0.45886   0.99395 
H          H       0.72265   0.45886   0.00605 
H          H       0.72265   0.54114   0.99395 
H          H       0.27735   0.04114   0.50605 
H          H       0.27735   0.95886   0.49395 
H          H       0.72265   0.95886   0.50605 
H          H       0.72265   0.04114   0.49395 
H          H       0.16473   0.63230   0.83062 
H          H       0.16473   0.36770   0.16938 
H          H       0.83527   0.36770   0.83062 
H          H       0.83527   0.63230   0.16938 
H          H       0.16473   0.13230   0.33062 
H          H       0.16473   0.86770   0.66938 
H          H       0.83527   0.86770   0.33062 
H          H       0.83527   0.13230   0.66938 
H          H       0.22413   0.59481   0.19717 
H          H       0.22413   0.40519   0.80283 
H          H       0.77587   0.40519   0.19717 
H          H       0.77587   0.59481   0.80283 
H          H       0.22413   0.09481   0.69717 
H          H       0.22413   0.90519   0.30283 
H          H       0.77587   0.90519   0.69717 
H          H       0.77587   0.09481   0.30283 
H          H       0.24193   0.69389   0.84920 
H          H       0.24193   0.30611   0.15080 
H          H       0.75807   0.30611   0.84920 
H          H       0.75807   0.69389   0.15080 
H          H       0.24193   0.19389   0.34920 
H          H       0.24193   0.80611   0.65080 
H          H       0.75807   0.80611   0.34920 
H          H       0.75807   0.19389   0.65080 
H          H       0.30047   0.65696   0.21779 
H          H       0.30047   0.34304   0.78221 
H          H       0.69953   0.34304   0.21779 
H          H       0.69953   0.65696   0.78221 
H          H       0.30047   0.15696   0.71779 
H          H       0.30047   0.84304   0.28221 
H          H       0.69953   0.84304   0.71779 
H          H       0.69953   0.15696   0.28221 
H          H       0.24023   0.75316   0.95534 
H          H       0.24023   0.24684   0.04466 
H          H       0.75977   0.24684   0.95534 
H          H       0.75977   0.75316   0.04466 
H          H       0.24023   0.25316   0.45534 
H          H       0.24023   0.74684   0.54466 
H          H       0.75977   0.74684   0.45534 
H          H       0.75977   0.25316   0.54466 
H          H       0.41152   0.76735   0.14289 
H          H       0.41152   0.23265   0.85711 
H          H       0.58848   0.23265   0.14289 
H          H       0.58848   0.76735   0.85711 
H          H       0.41152   0.26735   0.64289 
H          H       0.41152   0.73265   0.35711 
H          H       0.58848   0.73265   0.64289 
H          H       0.58848   0.26735   0.35711 
H          H       0.26316   0.82236   0.88661 
H          H       0.26316   0.17764   0.11339 
H          H       0.73684   0.17764   0.88661 
H          H       0.73684   0.82236   0.11339 
H          H       0.26316   0.32236   0.38661 
H          H       0.26316   0.67764   0.61339 
H          H       0.73684   0.67764   0.38661 
H          H       0.73684   0.32236   0.61339 
H          H       0.48394   0.83131   0.14238 
H          H       0.48394   0.16869   0.85762 
H          H       0.51606   0.16869   0.14238 
H          H       0.51606   0.83131   0.85762 
H          H       0.48394   0.33131   0.64238 
H          H       0.48394   0.66869   0.35762 
H          H       0.51606   0.66869   0.64238 
H          H       0.51606   0.33131   0.35762 
H          H       0.33625   0.88602   0.88338 
H          H       0.33625   0.11398   0.11662 
H          H       0.66375   0.11398   0.88338 
H          H       0.66375   0.88602   0.11662 
H          H       0.33625   0.38602   0.38338 
H          H       0.33625   0.61398   0.61662 
H          H       0.66375   0.61398   0.38338 
H          H       0.66375   0.38602   0.61662 
Zn         Zn     -0.00000   0.50000   0.00000 
Zn         Zn     -0.00000   0.00000   0.50000 
N          N      -0.00000   0.56368   0.00000 
N          N      -0.00000   0.43632   0.00000 
N          N      -0.00000   0.06368   0.50000 
N          N      -0.00000   0.93632   0.50000 
N          N       0.11301   0.50000   0.00000 
N          N       0.88699   0.50000   0.00000 
N          N       0.11301   0.00000   0.50000 
N          N       0.88699   0.00000   0.50000 
C          C       0.50000   0.97907   0.00000 
C          C       0.50000   0.02093   0.00000 
C          C       0.50000   0.47907   0.50000 
C          C       0.50000   0.52093   0.50000 
