data_crystal

_cell_length_a    50.98830
_cell_length_b    50.98830
_cell_length_c    7.55520
_cell_angle_alpha 90.00000
_cell_angle_beta  90.00000
_cell_angle_gamma 120.00000

_space_group_name_Hall 'P 1'
_space_group_name_H-M_alt  'P 1'

loop_
_symmetry_equiv_pos_as_xyz
'x,y,z' 

loop_
_atom_site_label
_atom_site_type_symbol
_atom_site_fract_x
_atom_site_fract_y
_atom_site_fract_z
C          C       0.41452   0.42404   0.29793 
C          C       0.57596   0.99048   0.29793 
C          C       0.00952   0.58548   0.29793 
C          C       0.58548   0.57596   0.29793 
C          C       0.42404   0.00952   0.29793 
C          C       0.99048   0.41452   0.29793 
C          C       0.44174   0.45342   0.30299 
C          C       0.54658   0.98832   0.30299 
C          C       0.01168   0.55826   0.30299 
C          C       0.55826   0.54658   0.30299 
C          C       0.45342   0.01168   0.30299 
C          C       0.98832   0.44174   0.30299 
C          C       0.47131   0.45605   0.29568 
C          C       0.54395   0.01526   0.29568 
C          C       0.98474   0.52869   0.29568 
C          C       0.52869   0.54395   0.29568 
C          C       0.45605   0.98474   0.29568 
C          C       0.01526   0.47131   0.29568 
C          C       0.50009   0.48657   0.29685 
C          C       0.51343   0.01352   0.29685 
C          C       0.98648   0.49991   0.29685 
C          C       0.49991   0.51343   0.29685 
C          C       0.48657   0.98648   0.29685 
C          C       0.01352   0.50009   0.29685 
C          C       0.47363   0.42908   0.28363 
C          C       0.57092   0.04455   0.28363 
C          C       0.95545   0.52637   0.28363 
C          C       0.52637   0.57092   0.28363 
C          C       0.42908   0.95545   0.28363 
C          C       0.04455   0.47363   0.28363 
C          C       0.44674   0.39943   0.27771 
C          C       0.60057   0.04731   0.27771 
C          C       0.95269   0.55326   0.27771 
C          C       0.55326   0.60057   0.27771 
C          C       0.39943   0.95269   0.27771 
C          C       0.04731   0.44674   0.27771 
C          C       0.41735   0.39725   0.28464 
C          C       0.60275   0.02010   0.28464 
C          C       0.97990   0.58265   0.28464 
C          C       0.58265   0.60275   0.28464 
C          C       0.39725   0.97990   0.28464 
C          C       0.02010   0.41735   0.28464 
C          C       0.32358   0.41593   0.32304 
C          C       0.58407   0.90765   0.32304 
C          C       0.09235   0.67642   0.32304 
C          C       0.67642   0.58407   0.32304 
C          C       0.41593   0.09235   0.32304 
C          C       0.90765   0.32358   0.32304 
C          C       0.35087   0.44505   0.34620 
C          C       0.55495   0.90582   0.34620 
C          C       0.09418   0.64913   0.34620 
C          C       0.64913   0.55495   0.34620 
C          C       0.44505   0.09418   0.34620 
C          C       0.90582   0.35087   0.34620 
C          C       0.38035   0.44772   0.33795 
C          C       0.55228   0.93263   0.33795 
C          C       0.06737   0.61965   0.33795 
C          C       0.61965   0.55228   0.33795 
C          C       0.44772   0.06737   0.33795 
C          C       0.93263   0.38035   0.33795 
C          C       0.38332   0.42131   0.30606 
C          C       0.57869   0.96201   0.30606 
C          C       0.03799   0.61668   0.30606 
C          C       0.61668   0.57869   0.30606 
C          C       0.42131   0.03799   0.30606 
C          C       0.96201   0.38332   0.30606 
C          C       0.35618   0.39224   0.28157 
C          C       0.60776   0.96394   0.28157 
C          C       0.03606   0.64382   0.28157 
C          C       0.64382   0.60776   0.28157 
C          C       0.39224   0.03606   0.28157 
C          C       0.96394   0.35618   0.28157 
C          C       0.32674   0.38963   0.28907 
C          C       0.61037   0.93711   0.28907 
C          C       0.06289   0.67326   0.28907 
C          C       0.67326   0.61037   0.28907 
C          C       0.38963   0.06289   0.28907 
C          C       0.93711   0.32674   0.28907 
C          C       0.42245   0.34151   0.24071 
C          C       0.65849   0.08094   0.24071 
C          C       0.91906   0.57755   0.24071 
C          C       0.57755   0.65849   0.24071 
C          C       0.34151   0.91906   0.24071 
C          C       0.08094   0.42245   0.24071 
C          C       0.44927   0.37089   0.26328 
C          C       0.62911   0.07838   0.26328 
C          C       0.92162   0.55073   0.26328 
C          C       0.55073   0.62911   0.26328 
C          C       0.37089   0.92162   0.26328 
C          C       0.07838   0.44927   0.26328 
C          C       0.47849   0.37271   0.27216 
C          C       0.62729   0.10578   0.27216 
C          C       0.89422   0.52151   0.27216 
C          C       0.52151   0.62729   0.27216 
C          C       0.37271   0.89422   0.27216 
C          C       0.10578   0.47849   0.27216 
C          C       0.48080   0.34574   0.25863 
C          C       0.65426   0.13506   0.25863 
C          C       0.86494   0.51920   0.25863 
C          C       0.51920   0.65426   0.25863 
C          C       0.34574   0.86494   0.25863 
C          C       0.13506   0.48080   0.25863 
C          C       0.45402   0.31629   0.23453 
C          C       0.68371   0.13773   0.23453 
C          C       0.86227   0.54598   0.23453 
C          C       0.54598   0.68371   0.23453 
C          C       0.31629   0.86227   0.23453 
C          C       0.13773   0.45402   0.23453 
C          C       0.42480   0.31459   0.22667 
C          C       0.68541   0.11021   0.22667 
C          C       0.88979   0.57520   0.22667 
C          C       0.57520   0.68541   0.22667 
C          C       0.31459   0.88979   0.22667 
C          C       0.11021   0.42480   0.22667 
N          N       0.29315   0.41363   0.32752 
N          N       0.58637   0.87952   0.32752 
N          N       0.12048   0.70685   0.32752 
N          N       0.70685   0.58637   0.32752 
N          N       0.41363   0.12048   0.32752 
N          N       0.87952   0.29315   0.32752 
N          N       0.54396   0.71192   0.22348 
N          N       0.28808   0.83204   0.22348 
N          N       0.16796   0.45604   0.22348 
N          N       0.45604   0.28808   0.22348 
N          N       0.71192   0.16796   0.22348 
N          N       0.83204   0.54396   0.22348 
C          C       0.79326   0.25715   0.23295 
C          C       0.74285   0.53611   0.23295 
C          C       0.46389   0.20674   0.23295 
C          C       0.20674   0.74285   0.23295 
C          C       0.25715   0.46389   0.23295 
C          C       0.53611   0.79326   0.23295 
C          C       0.82233   0.26056   0.27817 
C          C       0.73944   0.56177   0.27817 
C          C       0.43823   0.17767   0.27817 
C          C       0.17767   0.73944   0.27817 
C          C       0.26056   0.43823   0.27817 
C          C       0.56177   0.82233   0.27817 
C          C       0.82486   0.23426   0.31944 
C          C       0.76574   0.59060   0.31944 
C          C       0.40940   0.17514   0.31944 
C          C       0.17514   0.76574   0.31944 
C          C       0.23426   0.40940   0.31944 
C          C       0.59060   0.82486   0.31944 
C          C       0.79814   0.20469   0.31417 
C          C       0.79531   0.59345   0.31417 
C          C       0.40655   0.20186   0.31417 
C          C       0.20186   0.79531   0.31417 
C          C       0.20469   0.40655   0.31417 
C          C       0.59345   0.79814   0.31417 
C          C       0.76904   0.20118   0.26871 
C          C       0.79882   0.56786   0.26871 
C          C       0.43214   0.23096   0.26871 
C          C       0.23096   0.79882   0.26871 
C          C       0.20118   0.43214   0.26871 
C          C       0.56786   0.76904   0.26871 
C          C       0.76646   0.22758   0.22790 
C          C       0.77242   0.53888   0.22790 
C          C       0.46112   0.23354   0.22790 
C          C       0.23354   0.77242   0.22790 
C          C       0.22758   0.46112   0.22790 
C          C       0.53888   0.76646   0.22790 
C          C       0.85025   0.29243   0.27997 
C          C       0.70757   0.55782   0.27997 
C          C       0.44218   0.14975   0.27997 
C          C       0.14975   0.70757   0.27997 
C          C       0.29243   0.44218   0.27997 
C          C       0.55782   0.85025   0.27997 
C          C       0.74143   0.16907   0.26698 
C          C       0.83093   0.57236   0.26698 
C          C       0.42764   0.25857   0.26698 
C          C       0.25857   0.83093   0.26698 
C          C       0.16907   0.42764   0.26698 
C          C       0.57236   0.74143   0.26698 
O          O       0.51246   0.73814   0.17880 
O          O       0.26186   0.77432   0.17880 
O          O       0.22568   0.48754   0.17880 
O          O       0.48754   0.26186   0.17880 
O          O       0.73814   0.22568   0.17880 
O          O       0.77432   0.51246   0.17880 
C          C       0.51540   0.71140   0.17043 
C          C       0.28860   0.80400   0.17043 
C          C       0.19600   0.48460   0.17043 
C          C       0.48460   0.28860   0.17043 
C          C       0.71140   0.19600   0.17043 
C          C       0.80400   0.51540   0.17043 
O          O       0.49298   0.68729   0.11435 
O          O       0.31271   0.80569   0.11435 
O          O       0.19431   0.50702   0.11435 
O          O       0.50702   0.31271   0.11435 
O          O       0.68729   0.19431   0.11435 
O          O       0.80569   0.49298   0.11435 
O          O       0.61682   0.85326   0.36868 
O          O       0.14674   0.76356   0.36868 
O          O       0.23644   0.38318   0.36868 
O          O       0.38318   0.14674   0.36868 
O          O       0.85326   0.23644   0.36868 
O          O       0.76356   0.61682   0.36868 
C          C       0.61384   0.88004   0.37506 
C          C       0.11996   0.73380   0.37506 
C          C       0.26620   0.38616   0.37506 
C          C       0.38616   0.11996   0.37506 
C          C       0.88004   0.26620   0.37506 
C          C       0.73380   0.61384   0.37506 
O          O       0.63660   0.90429   0.42658 
O          O       0.09571   0.73231   0.42658 
O          O       0.26769   0.36340   0.42658 
O          O       0.36340   0.09571   0.42658 
O          O       0.90429   0.26769   0.42658 
O          O       0.73231   0.63660   0.42658 
H          H       0.43998   0.47551   0.31316 
H          H       0.52449   0.96447   0.31316 
H          H       0.03553   0.56002   0.31316 
H          H       0.56002   0.52449   0.31316 
H          H       0.47551   0.03553   0.31316 
H          H       0.96447   0.43998   0.31316 
H          H       0.52381   0.48792   0.29780 
H          H       0.51208   0.03589   0.29780 
H          H       0.96411   0.47619   0.29780 
H          H       0.47619   0.51208   0.29780 
H          H       0.48792   0.96411   0.29780 
H          H       0.03589   0.52381   0.29780 
H          H       0.49759   0.43100   0.27849 
H          H       0.56900   0.06659   0.27849 
H          H       0.93341   0.50241   0.27849 
H          H       0.50241   0.56900   0.27849 
H          H       0.43100   0.93341   0.27849 
H          H       0.06659   0.49759   0.27849 
H          H       0.39551   0.37314   0.27925 
H          H       0.62686   0.02237   0.27925 
H          H       0.97763   0.60449   0.27925 
H          H       0.60449   0.62686   0.27925 
H          H       0.37314   0.97763   0.27925 
H          H       0.02237   0.39551   0.27925 
H          H       0.34912   0.46690   0.37211 
H          H       0.53310   0.88222   0.37211 
H          H       0.11778   0.65088   0.37211 
H          H       0.65088   0.53310   0.37211 
H          H       0.46690   0.11778   0.37211 
H          H       0.88222   0.34912   0.37211 
H          H       0.40225   0.47151   0.35722 
H          H       0.52849   0.93074   0.35722 
H          H       0.06926   0.59775   0.35722 
H          H       0.59775   0.52849   0.35722 
H          H       0.47151   0.06926   0.35722 
H          H       0.93074   0.40225   0.35722 
H          H       0.35804   0.37047   0.25526 
H          H       0.62953   0.98757   0.25526 
H          H       0.01243   0.64196   0.25526 
H          H       0.64196   0.62953   0.25526 
H          H       0.37047   0.01243   0.25526 
H          H       0.98757   0.35804   0.25526 
H          H       0.30508   0.36574   0.26719 
H          H       0.63426   0.93934   0.26719 
H          H       0.06066   0.69492   0.26719 
H          H       0.69492   0.63426   0.26719 
H          H       0.36574   0.06066   0.26719 
H          H       0.93934   0.30508   0.26719 
H          H       0.39844   0.33947   0.23367 
H          H       0.66053   0.05897   0.23367 
H          H       0.94103   0.60156   0.23367 
H          H       0.60156   0.66053   0.23367 
H          H       0.33947   0.94103   0.23367 
H          H       0.05897   0.39844   0.23367 
H          H       0.50062   0.39635   0.29056 
H          H       0.60365   0.10427   0.29056 
H          H       0.89573   0.49938   0.29056 
H          H       0.49938   0.60365   0.29056 
H          H       0.39635   0.89573   0.29056 
H          H       0.10427   0.50062   0.29056 
H          H       0.50464   0.34745   0.26714 
H          H       0.65255   0.15719   0.26714 
H          H       0.84281   0.49536   0.26714 
H          H       0.49536   0.65255   0.26714 
H          H       0.34745   0.84281   0.26714 
H          H       0.15719   0.50464   0.26714 
H          H       0.40283   0.29081   0.20857 
H          H       0.70919   0.11202   0.20857 
H          H       0.88798   0.59717   0.20857 
H          H       0.59717   0.70919   0.20857 
H          H       0.29081   0.88798   0.20857 
H          H       0.11202   0.40283   0.20857 
H          H       0.79119   0.27862   0.19962 
H          H       0.72138   0.51257   0.19962 
H          H       0.48743   0.20881   0.19962 
H          H       0.20881   0.72138   0.19962 
H          H       0.27862   0.48743   0.19962 
H          H       0.51257   0.79119   0.19962 
H          H       0.79991   0.18305   0.34719 
H          H       0.81695   0.61686   0.34719 
H          H       0.38314   0.20009   0.34719 
H          H       0.20009   0.81695   0.34719 
H          H       0.18305   0.38314   0.34719 
H          H       0.61686   0.79991   0.34719 
H          H       0.84621   0.30731   0.38690 
H          H       0.69269   0.53890   0.38690 
H          H       0.46110   0.15379   0.38690 
H          H       0.15379   0.69269   0.38690 
H          H       0.30731   0.46110   0.38690 
H          H       0.53890   0.84621   0.38690 
H          H       0.85351   0.30347   0.13417 
H          H       0.69653   0.55004   0.13417 
H          H       0.44996   0.14649   0.13417 
H          H       0.14649   0.69653   0.13417 
H          H       0.30347   0.44996   0.13417 
H          H       0.55004   0.85351   0.13417 
H          H       0.73932   0.15796   0.41145 
H          H       0.84204   0.58136   0.41145 
H          H       0.41864   0.26068   0.41145 
H          H       0.26068   0.84204   0.41145 
H          H       0.15796   0.41864   0.41145 
H          H       0.58136   0.73932   0.41145 
H          H       0.74494   0.15443   0.15558 
H          H       0.84557   0.59051   0.15558 
H          H       0.40949   0.25506   0.15558 
H          H       0.25506   0.84557   0.15558 
H          H       0.15443   0.40949   0.15558 
H          H       0.59051   0.74494   0.15558 
C          C       0.41452   0.42404   0.79793 
C          C       0.57596   0.99048   0.79793 
C          C       0.00952   0.58548   0.79793 
C          C       0.58548   0.57596   0.79793 
C          C       0.42404   0.00952   0.79793 
C          C       0.99048   0.41452   0.79793 
C          C       0.44174   0.45342   0.80299 
C          C       0.54658   0.98832   0.80299 
C          C       0.01168   0.55826   0.80299 
C          C       0.55826   0.54658   0.80299 
C          C       0.45342   0.01168   0.80299 
C          C       0.98832   0.44174   0.80299 
C          C       0.47131   0.45605   0.79568 
C          C       0.54395   0.01526   0.79568 
C          C       0.98474   0.52869   0.79568 
C          C       0.52869   0.54395   0.79568 
C          C       0.45605   0.98474   0.79568 
C          C       0.01526   0.47131   0.79568 
C          C       0.50009   0.48657   0.79685 
C          C       0.51343   0.01352   0.79685 
C          C       0.98648   0.49991   0.79685 
C          C       0.49991   0.51343   0.79685 
C          C       0.48657   0.98648   0.79685 
C          C       0.01352   0.50009   0.79685 
C          C       0.47363   0.42908   0.78363 
C          C       0.57092   0.04455   0.78363 
C          C       0.95545   0.52637   0.78363 
C          C       0.52637   0.57092   0.78363 
C          C       0.42908   0.95545   0.78363 
C          C       0.04455   0.47363   0.78363 
C          C       0.44674   0.39943   0.77771 
C          C       0.60057   0.04731   0.77771 
C          C       0.95269   0.55326   0.77771 
C          C       0.55326   0.60057   0.77771 
C          C       0.39943   0.95269   0.77771 
C          C       0.04731   0.44674   0.77771 
C          C       0.41735   0.39725   0.78464 
C          C       0.60275   0.02010   0.78464 
C          C       0.97990   0.58265   0.78464 
C          C       0.58265   0.60275   0.78464 
C          C       0.39725   0.97990   0.78464 
C          C       0.02010   0.41735   0.78464 
C          C       0.32358   0.41593   0.82304 
C          C       0.58407   0.90765   0.82304 
C          C       0.09235   0.67642   0.82304 
C          C       0.67642   0.58407   0.82304 
C          C       0.41593   0.09235   0.82304 
C          C       0.90765   0.32358   0.82304 
C          C       0.35087   0.44505   0.84620 
C          C       0.55495   0.90582   0.84620 
C          C       0.09418   0.64913   0.84620 
C          C       0.64913   0.55495   0.84620 
C          C       0.44505   0.09418   0.84620 
C          C       0.90582   0.35087   0.84620 
C          C       0.38035   0.44772   0.83795 
C          C       0.55228   0.93263   0.83795 
C          C       0.06737   0.61965   0.83795 
C          C       0.61965   0.55228   0.83795 
C          C       0.44772   0.06737   0.83795 
C          C       0.93263   0.38035   0.83795 
C          C       0.38332   0.42131   0.80605 
C          C       0.57869   0.96201   0.80605 
C          C       0.03799   0.61668   0.80605 
C          C       0.61668   0.57869   0.80605 
C          C       0.42131   0.03799   0.80605 
C          C       0.96201   0.38332   0.80605 
C          C       0.35618   0.39224   0.78156 
C          C       0.60776   0.96394   0.78156 
C          C       0.03606   0.64382   0.78156 
C          C       0.64382   0.60776   0.78156 
C          C       0.39224   0.03606   0.78156 
C          C       0.96394   0.35618   0.78156 
C          C       0.32674   0.38963   0.78907 
C          C       0.61037   0.93711   0.78907 
C          C       0.06289   0.67326   0.78907 
C          C       0.67326   0.61037   0.78907 
C          C       0.38963   0.06289   0.78907 
C          C       0.93711   0.32674   0.78907 
C          C       0.42245   0.34151   0.74071 
C          C       0.65849   0.08094   0.74071 
C          C       0.91906   0.57755   0.74071 
C          C       0.57755   0.65849   0.74071 
C          C       0.34151   0.91906   0.74071 
C          C       0.08094   0.42245   0.74071 
C          C       0.44927   0.37089   0.76328 
C          C       0.62911   0.07838   0.76328 
C          C       0.92162   0.55073   0.76328 
C          C       0.55073   0.62911   0.76328 
C          C       0.37089   0.92162   0.76328 
C          C       0.07838   0.44927   0.76328 
C          C       0.47849   0.37271   0.77216 
C          C       0.62729   0.10578   0.77216 
C          C       0.89422   0.52151   0.77216 
C          C       0.52151   0.62729   0.77216 
C          C       0.37271   0.89422   0.77216 
C          C       0.10578   0.47849   0.77216 
C          C       0.48080   0.34574   0.75863 
C          C       0.65426   0.13506   0.75863 
C          C       0.86494   0.51920   0.75863 
C          C       0.51920   0.65426   0.75863 
C          C       0.34574   0.86494   0.75863 
C          C       0.13506   0.48080   0.75863 
C          C       0.45402   0.31629   0.73453 
C          C       0.68371   0.13773   0.73453 
C          C       0.86227   0.54598   0.73453 
C          C       0.54598   0.68371   0.73453 
C          C       0.31629   0.86227   0.73453 
C          C       0.13773   0.45402   0.73453 
C          C       0.42480   0.31459   0.72667 
C          C       0.68541   0.11021   0.72667 
C          C       0.88979   0.57520   0.72667 
C          C       0.57520   0.68541   0.72667 
C          C       0.31459   0.88979   0.72667 
C          C       0.11021   0.42480   0.72667 
N          N       0.29315   0.41363   0.82752 
N          N       0.58637   0.87952   0.82752 
N          N       0.12048   0.70685   0.82752 
N          N       0.70685   0.58637   0.82752 
N          N       0.41363   0.12048   0.82752 
N          N       0.87952   0.29315   0.82752 
N          N       0.54396   0.71192   0.72348 
N          N       0.28808   0.83204   0.72348 
N          N       0.16796   0.45604   0.72348 
N          N       0.45604   0.28808   0.72348 
N          N       0.71192   0.16796   0.72348 
N          N       0.83204   0.54396   0.72348 
C          C       0.79326   0.25715   0.73295 
C          C       0.74285   0.53611   0.73295 
C          C       0.46389   0.20674   0.73295 
C          C       0.20674   0.74285   0.73295 
C          C       0.25715   0.46389   0.73295 
C          C       0.53611   0.79326   0.73295 
C          C       0.82233   0.26056   0.77817 
C          C       0.73944   0.56177   0.77817 
C          C       0.43823   0.17767   0.77817 
C          C       0.17767   0.73944   0.77817 
C          C       0.26056   0.43823   0.77817 
C          C       0.56177   0.82233   0.77817 
C          C       0.82486   0.23426   0.81945 
C          C       0.76574   0.59060   0.81945 
C          C       0.40940   0.17514   0.81945 
C          C       0.17514   0.76574   0.81945 
C          C       0.23426   0.40940   0.81945 
C          C       0.59060   0.82486   0.81945 
C          C       0.79814   0.20469   0.81417 
C          C       0.79531   0.59345   0.81417 
C          C       0.40655   0.20186   0.81417 
C          C       0.20186   0.79531   0.81417 
C          C       0.20469   0.40655   0.81417 
C          C       0.59345   0.79814   0.81417 
C          C       0.76904   0.20118   0.76871 
C          C       0.79882   0.56786   0.76871 
C          C       0.43214   0.23096   0.76871 
C          C       0.23096   0.79882   0.76871 
C          C       0.20118   0.43214   0.76871 
C          C       0.56786   0.76904   0.76871 
C          C       0.76646   0.22758   0.72791 
C          C       0.77242   0.53888   0.72791 
C          C       0.46112   0.23354   0.72791 
C          C       0.23354   0.77242   0.72791 
C          C       0.22758   0.46112   0.72791 
C          C       0.53888   0.76646   0.72791 
C          C       0.85025   0.29243   0.77997 
C          C       0.70757   0.55782   0.77997 
C          C       0.44218   0.14975   0.77997 
C          C       0.14975   0.70757   0.77997 
C          C       0.29243   0.44218   0.77997 
C          C       0.55782   0.85025   0.77997 
C          C       0.74143   0.16907   0.76698 
C          C       0.83093   0.57236   0.76698 
C          C       0.42764   0.25857   0.76698 
C          C       0.25857   0.83093   0.76698 
C          C       0.16907   0.42764   0.76698 
C          C       0.57236   0.74143   0.76698 
O          O       0.51246   0.73814   0.67880 
O          O       0.26186   0.77432   0.67880 
O          O       0.22568   0.48754   0.67880 
O          O       0.48754   0.26186   0.67880 
O          O       0.73814   0.22568   0.67880 
O          O       0.77432   0.51246   0.67880 
C          C       0.51540   0.71140   0.67043 
C          C       0.28860   0.80400   0.67043 
C          C       0.19600   0.48460   0.67043 
C          C       0.48460   0.28860   0.67043 
C          C       0.71140   0.19600   0.67043 
C          C       0.80400   0.51540   0.67043 
O          O       0.49298   0.68729   0.61434 
O          O       0.31271   0.80569   0.61434 
O          O       0.19431   0.50702   0.61434 
O          O       0.50702   0.31271   0.61434 
O          O       0.68729   0.19431   0.61434 
O          O       0.80569   0.49298   0.61434 
O          O       0.61682   0.85326   0.86868 
O          O       0.14674   0.76356   0.86868 
O          O       0.23644   0.38318   0.86868 
O          O       0.38318   0.14674   0.86868 
O          O       0.85326   0.23644   0.86868 
O          O       0.76356   0.61682   0.86868 
C          C       0.61384   0.88004   0.87506 
C          C       0.11996   0.73380   0.87506 
C          C       0.26620   0.38616   0.87506 
C          C       0.38616   0.11996   0.87506 
C          C       0.88004   0.26620   0.87506 
C          C       0.73380   0.61384   0.87506 
O          O       0.63660   0.90429   0.92658 
O          O       0.09571   0.73231   0.92658 
O          O       0.26769   0.36340   0.92658 
O          O       0.36340   0.09571   0.92658 
O          O       0.90429   0.26769   0.92658 
O          O       0.73231   0.63660   0.92658 
H          H       0.43998   0.47551   0.81316 
H          H       0.52449   0.96447   0.81316 
H          H       0.03553   0.56002   0.81316 
H          H       0.56002   0.52449   0.81316 
H          H       0.47551   0.03553   0.81316 
H          H       0.96447   0.43998   0.81316 
H          H       0.52381   0.48792   0.79780 
H          H       0.51208   0.03589   0.79780 
H          H       0.96411   0.47619   0.79780 
H          H       0.47619   0.51208   0.79780 
H          H       0.48792   0.96411   0.79780 
H          H       0.03589   0.52381   0.79780 
H          H       0.49759   0.43100   0.77849 
H          H       0.56900   0.06659   0.77849 
H          H       0.93341   0.50241   0.77849 
H          H       0.50241   0.56900   0.77849 
H          H       0.43100   0.93341   0.77849 
H          H       0.06659   0.49759   0.77849 
H          H       0.39551   0.37314   0.77926 
H          H       0.62686   0.02237   0.77926 
H          H       0.97763   0.60449   0.77926 
H          H       0.60449   0.62686   0.77926 
H          H       0.37314   0.97763   0.77926 
H          H       0.02237   0.39551   0.77926 
H          H       0.34912   0.46690   0.87211 
H          H       0.53310   0.88222   0.87211 
H          H       0.11778   0.65088   0.87211 
H          H       0.65088   0.53310   0.87211 
H          H       0.46690   0.11778   0.87211 
H          H       0.88222   0.34912   0.87211 
H          H       0.40225   0.47151   0.85722 
H          H       0.52849   0.93074   0.85722 
H          H       0.06926   0.59775   0.85722 
H          H       0.59775   0.52849   0.85722 
H          H       0.47151   0.06926   0.85722 
H          H       0.93074   0.40225   0.85722 
H          H       0.35804   0.37047   0.75526 
H          H       0.62953   0.98757   0.75526 
H          H       0.01243   0.64196   0.75526 
H          H       0.64196   0.62953   0.75526 
H          H       0.37047   0.01243   0.75526 
H          H       0.98757   0.35804   0.75526 
H          H       0.30508   0.36574   0.76719 
H          H       0.63426   0.93934   0.76719 
H          H       0.06066   0.69492   0.76719 
H          H       0.69492   0.63426   0.76719 
H          H       0.36574   0.06066   0.76719 
H          H       0.93934   0.30508   0.76719 
H          H       0.39844   0.33947   0.73367 
H          H       0.66053   0.05897   0.73367 
H          H       0.94103   0.60156   0.73367 
H          H       0.60156   0.66053   0.73367 
H          H       0.33947   0.94103   0.73367 
H          H       0.05897   0.39844   0.73367 
H          H       0.50062   0.39635   0.79056 
H          H       0.60365   0.10427   0.79056 
H          H       0.89573   0.49938   0.79056 
H          H       0.49938   0.60365   0.79056 
H          H       0.39635   0.89573   0.79056 
H          H       0.10427   0.50062   0.79056 
H          H       0.50464   0.34745   0.76714 
H          H       0.65255   0.15719   0.76714 
H          H       0.84281   0.49536   0.76714 
H          H       0.49536   0.65255   0.76714 
H          H       0.34745   0.84281   0.76714 
H          H       0.15719   0.50464   0.76714 
H          H       0.40283   0.29081   0.70857 
H          H       0.70919   0.11202   0.70857 
H          H       0.88798   0.59717   0.70857 
H          H       0.59717   0.70919   0.70857 
H          H       0.29081   0.88798   0.70857 
H          H       0.11202   0.40283   0.70857 
H          H       0.79119   0.27862   0.69962 
H          H       0.72138   0.51257   0.69962 
H          H       0.48743   0.20881   0.69962 
H          H       0.20881   0.72138   0.69962 
H          H       0.27862   0.48743   0.69962 
H          H       0.51257   0.79119   0.69962 
H          H       0.79991   0.18305   0.84719 
H          H       0.81695   0.61686   0.84719 
H          H       0.38314   0.20009   0.84719 
H          H       0.20009   0.81695   0.84719 
H          H       0.18305   0.38314   0.84719 
H          H       0.61686   0.79991   0.84719 
H          H       0.84621   0.30731   0.88690 
H          H       0.69269   0.53890   0.88690 
H          H       0.46110   0.15379   0.88690 
H          H       0.15379   0.69269   0.88690 
H          H       0.30731   0.46110   0.88690 
H          H       0.53890   0.84621   0.88690 
H          H       0.85351   0.30347   0.63416 
H          H       0.69653   0.55004   0.63416 
H          H       0.44996   0.14649   0.63416 
H          H       0.14649   0.69653   0.63416 
H          H       0.30347   0.44996   0.63416 
H          H       0.55004   0.85351   0.63416 
H          H       0.73932   0.15796   0.91145 
H          H       0.84204   0.58136   0.91145 
H          H       0.41864   0.26068   0.91145 
H          H       0.26068   0.84204   0.91145 
H          H       0.15796   0.41864   0.91145 
H          H       0.58136   0.73932   0.91145 
H          H       0.74494   0.15443   0.65558 
H          H       0.84557   0.59051   0.65558 
H          H       0.40949   0.25506   0.65558 
H          H       0.25506   0.84557   0.65558 
H          H       0.15443   0.40949   0.65558 
H          H       0.59051   0.74494   0.65558 
