data_crystal
 
_cell_length_a    48.95280
_cell_length_b    48.95280
_cell_length_c    7.61260
_cell_angle_alpha 90.00000
_cell_angle_beta  90.00000
_cell_angle_gamma 120.00000
 
_space_group_name_Hall 'P 1'
_space_group_name_H-M_alt  'P 1'
 
loop_
_symmetry_equiv_pos_as_xyz
 'x,y,z' 
 
loop_
_atom_site_label
_atom_site_type_symbol
_atom_site_fract_x
_atom_site_fract_y
_atom_site_fract_z
C          C       0.41163   0.42814   0.28739 
C          C       0.57186   0.98349   0.28739 
C          C       0.01651   0.58837   0.28739 
C          C       0.58837   0.57186   0.28739 
C          C       0.42814   0.01651   0.28739 
C          C       0.98349   0.41163   0.28739 
C          C       0.43924   0.45589   0.32130 
C          C       0.54411   0.98335   0.32130 
C          C       0.01665   0.56076   0.32130 
C          C       0.56076   0.54411   0.32130 
C          C       0.45589   0.01665   0.32130 
C          C       0.98335   0.43924   0.32130 
C          C       0.46779   0.45662   0.32814 
C          C       0.54338   0.01117   0.32814 
C          C       0.98883   0.53221   0.32814 
C          C       0.53221   0.54338   0.32814 
C          C       0.45662   0.98883   0.32814 
C          C       0.01117   0.46779   0.32814 
C          C       0.49813   0.48570   0.34410 
C          C       0.51430   0.01243   0.34410 
C          C       0.98757   0.50187   0.34410 
C          C       0.50187   0.51430   0.34410 
C          C       0.48570   0.98757   0.34410 
C          C       0.01243   0.49813   0.34410 
C          C       0.46798   0.42871   0.31146 
C          C       0.57129   0.03927   0.31146 
C          C       0.96073   0.53202   0.31146 
C          C       0.53202   0.57129   0.31146 
C          C       0.42871   0.96073   0.31146 
C          C       0.03927   0.46798   0.31146 
C          C       0.44063   0.40067   0.27912 
C          C       0.59933   0.03996   0.27912 
C          C       0.96004   0.55937   0.27912 
C          C       0.55937   0.59933   0.27912 
C          C       0.40067   0.96004   0.27912 
C          C       0.03996   0.44063   0.27912 
C          C       0.41272   0.40085   0.26297 
C          C       0.59915   0.01187   0.26297 
C          C       0.98813   0.58728   0.26297 
C          C       0.58728   0.59915   0.26297 
C          C       0.40085   0.98813   0.26297 
C          C       0.01187   0.41272   0.26297 
C          C       0.32442   0.42633   0.26267 
C          C       0.57367   0.89809   0.26267 
C          C       0.10191   0.67558   0.26267 
C          C       0.67558   0.57367   0.26267 
C          C       0.42633   0.10191   0.26267 
C          C       0.89809   0.32442   0.26267 
C          C       0.35152   0.45201   0.19657 
C          C       0.54799   0.89951   0.19657 
C          C       0.10049   0.64848   0.19657 
C          C       0.64848   0.54799   0.19657 
C          C       0.45201   0.10049   0.19657 
C          C       0.89951   0.35152   0.19657 
C          C       0.37973   0.45250   0.20355 
C          C       0.54750   0.92723   0.20355 
C          C       0.07277   0.62027   0.20355 
C          C       0.62027   0.54750   0.20355 
C          C       0.45250   0.07277   0.20355 
C          C       0.92723   0.37973   0.20355 
C          C       0.38158   0.42757   0.27777 
C          C       0.57243   0.95401   0.27777 
C          C       0.04599   0.61842   0.27777 
C          C       0.61842   0.57243   0.27777 
C          C       0.42757   0.04599   0.27777 
C          C       0.95401   0.38158   0.27777 
C          C       0.35444   0.40208   0.34392 
C          C       0.59792   0.95236   0.34392 
C          C       0.04764   0.64556   0.34392 
C          C       0.64556   0.59792   0.34392 
C          C       0.40208   0.04764   0.34392 
C          C       0.95236   0.35444   0.34392 
C          C       0.32625   0.40150   0.33546 
C          C       0.59850   0.92475   0.33546 
C          C       0.07525   0.67375   0.33546 
C          C       0.67375   0.59850   0.33546 
C          C       0.40150   0.07525   0.33546 
C          C       0.92475   0.32625   0.33546 
C          C       0.41628   0.34344   0.32946 
C          C       0.65656   0.07284   0.32946 
C          C       0.92716   0.58372   0.32946 
C          C       0.58372   0.65656   0.32946 
C          C       0.34344   0.92716   0.32946 
C          C       0.07284   0.41628   0.32946 
C          C       0.44107   0.37117   0.26350 
C          C       0.62883   0.06990   0.26350 
C          C       0.93010   0.55893   0.26350 
C          C       0.55893   0.62883   0.26350 
C          C       0.37117   0.93010   0.26350 
C          C       0.06990   0.44107   0.26350 
C          C       0.46637   0.37045   0.18584 
C          C       0.62955   0.09592   0.18584 
C          C       0.90408   0.53363   0.18584 
C          C       0.53363   0.62955   0.18584 
C          C       0.37045   0.90408   0.18584 
C          C       0.09592   0.46637   0.18584 
C          C       0.46684   0.34277   0.17522 
C          C       0.65723   0.12407   0.17522 
C          C       0.87593   0.53316   0.17522 
C          C       0.53316   0.65723   0.17522 
C          C       0.34277   0.87593   0.17522 
C          C       0.12407   0.46684   0.17522 
C          C       0.44206   0.31516   0.23966 
C          C       0.68484   0.12690   0.23966 
C          C       0.87310   0.55794   0.23966 
C          C       0.55794   0.68484   0.23966 
C          C       0.31516   0.87310   0.23966 
C          C       0.12690   0.44206   0.23966 
C          C       0.41667   0.31574   0.31750 
C          C       0.68426   0.10093   0.31750 
C          C       0.89907   0.58333   0.31750 
C          C       0.58333   0.68426   0.31750 
C          C       0.31574   0.89907   0.31750 
C          C       0.10093   0.41667   0.31750 
N          N       0.29470   0.42432   0.26088 
N          N       0.57568   0.87038   0.26088 
N          N       0.12962   0.70530   0.26088 
N          N       0.70530   0.57568   0.26088 
N          N       0.42432   0.12962   0.26088 
N          N       0.87038   0.29470   0.26088 
N          N       0.55596   0.71253   0.22568 
N          N       0.28747   0.84343   0.22568 
N          N       0.15657   0.44404   0.22568 
N          N       0.44404   0.28747   0.22568 
N          N       0.71253   0.15657   0.22568 
N          N       0.84343   0.55596   0.22568 
C          C       0.78726   0.24900   0.15620 
C          C       0.75100   0.53826   0.15620 
C          C       0.46174   0.21274   0.15620 
C          C       0.21274   0.75100   0.15620 
C          C       0.24900   0.46174   0.15620 
C          C       0.53826   0.78726   0.15620 
C          C       0.81696   0.25584   0.21199 
C          C       0.74416   0.56112   0.21199 
C          C       0.43888   0.18304   0.21199 
C          C       0.18304   0.74416   0.21199 
C          C       0.25584   0.43888   0.21199 
C          C       0.56112   0.81696   0.21199 
C          C       0.82147   0.23223   0.28140 
C          C       0.76777   0.58924   0.28140 
C          C       0.41076   0.17853   0.28140 
C          C       0.17853   0.76777   0.28140 
C          C       0.23223   0.41076   0.28140 
C          C       0.58924   0.82147   0.28140 
C          C       0.79671   0.20166   0.29875 
C          C       0.79834   0.59505   0.29875 
C          C       0.40495   0.20329   0.29875 
C          C       0.20329   0.79834   0.29875 
C          C       0.20166   0.40495   0.29875 
C          C       0.59505   0.79671   0.29875 
C          C       0.76697   0.19486   0.24440 
C          C       0.80514   0.57211   0.24440 
C          C       0.42789   0.23303   0.24440 
C          C       0.23303   0.80514   0.24440 
C          C       0.19486   0.42789   0.24440 
C          C       0.57211   0.76697   0.24440 
C          C       0.76246   0.21841   0.17383 
C          C       0.78159   0.54405   0.17383 
C          C       0.45595   0.23754   0.17383 
C          C       0.23754   0.78159   0.17383 
C          C       0.21841   0.45595   0.17383 
C          C       0.54405   0.76246   0.17383 
C          C       0.84336   0.28790   0.19932 
C          C       0.71210   0.55546   0.19932 
C          C       0.44454   0.15664   0.19932 
C          C       0.15664   0.71210   0.19932 
C          C       0.28790   0.44454   0.19932 
C          C       0.55546   0.84336   0.19932 
C          C       0.74055   0.16293   0.26254 
C          C       0.83707   0.57762   0.26254 
C          C       0.42238   0.25945   0.26254 
C          C       0.25945   0.83707   0.26254 
C          C       0.16293   0.42238   0.26254 
C          C       0.57762   0.74055   0.26254 
O          O       0.17743   0.37720   0.37117 
O          O       0.62280   0.80023   0.37117 
O          O       0.19977   0.82257   0.37117 
O          O       0.82257   0.62280   0.37117 
O          O       0.37720   0.19977   0.37117 
O          O       0.80023   0.17743   0.37117 
O          O       0.27327   0.48948   0.08414 
O          O       0.51052   0.78379   0.08414 
O          O       0.21621   0.72673   0.08414 
O          O       0.72673   0.51052   0.08414 
O          O       0.48948   0.21621   0.08414 
O          O       0.78379   0.27327   0.08414 
H          H       0.43798   0.47654   0.34366 
H          H       0.52346   0.96144   0.34366 
H          H       0.03856   0.56202   0.34366 
H          H       0.56202   0.52346   0.34366 
H          H       0.47654   0.03856   0.34366 
H          H       0.96144   0.43798   0.34366 
H          H       0.51817   0.48291   0.34393 
H          H       0.51709   0.03526   0.34393 
H          H       0.96474   0.48183   0.34393 
H          H       0.48183   0.51709   0.34393 
H          H       0.48291   0.96474   0.34393 
H          H       0.03526   0.51817   0.34393 
H          H       0.48967   0.42891   0.32429 
H          H       0.57109   0.06076   0.32429 
H          H       0.93924   0.51033   0.32429 
H          H       0.51033   0.57109   0.32429 
H          H       0.42891   0.93924   0.32429 
H          H       0.06076   0.48967   0.32429 
H          H       0.39179   0.37969   0.22845 
H          H       0.62031   0.01210   0.22845 
H          H       0.98790   0.60821   0.22845 
H          H       0.60821   0.62031   0.22845 
H          H       0.37969   0.98790   0.22845 
H          H       0.01210   0.39179   0.22845 
H          H       0.35131   0.47165   0.13796 
H          H       0.52835   0.87966   0.13796 
H          H       0.12034   0.64869   0.13796 
H          H       0.64869   0.52835   0.13796 
H          H       0.47165   0.12034   0.13796 
H          H       0.87966   0.35131   0.13796 
H          H       0.40000   0.47220   0.14760 
H          H       0.52780   0.92780   0.14760 
H          H       0.07220   0.60000   0.14760 
H          H       0.60000   0.52780   0.14760 
H          H       0.47220   0.07220   0.14760 
H          H       0.92780   0.40000   0.14760 
H          H       0.35504   0.38279   0.40597 
H          H       0.61721   0.97225   0.40597 
H          H       0.02775   0.64496   0.40597 
H          H       0.64496   0.61721   0.40597 
H          H       0.38279   0.02775   0.40597 
H          H       0.97225   0.35504   0.40597 
H          H       0.30568   0.38170   0.38836 
H          H       0.61830   0.92398   0.38836 
H          H       0.07602   0.69432   0.38836 
H          H       0.69432   0.61830   0.38836 
H          H       0.38170   0.07602   0.38836 
H          H       0.92398   0.30568   0.38836 
H          H       0.39686   0.34323   0.39520 
H          H       0.65677   0.05363   0.39520 
H          H       0.94637   0.60314   0.39520 
H          H       0.60314   0.65677   0.39520 
H          H       0.34323   0.94637   0.39520 
H          H       0.05363   0.39686   0.39520 
H          H       0.48560   0.39115   0.13016 
H          H       0.60885   0.09445   0.13016 
H          H       0.90555   0.51440   0.13016 
H          H       0.51440   0.60885   0.13016 
H          H       0.39115   0.90555   0.13016 
H          H       0.09445   0.48560   0.13016 
H          H       0.48651   0.34273   0.11442 
H          H       0.65727   0.14378   0.11442 
H          H       0.85622   0.51349   0.11442 
H          H       0.51349   0.65727   0.11442 
H          H       0.34273   0.85622   0.11442 
H          H       0.14378   0.48651   0.11442 
H          H       0.39734   0.29531   0.37366 
H          H       0.70469   0.10203   0.37366 
H          H       0.89797   0.60266   0.37366 
H          H       0.60266   0.70469   0.37366 
H          H       0.29531   0.89797   0.37366 
H          H       0.10203   0.39734   0.37366 
H          H       0.84448   0.23794   0.32169 
H          H       0.76206   0.60654   0.32169 
H          H       0.39346   0.15552   0.32169 
H          H       0.15552   0.76206   0.32169 
H          H       0.23794   0.39346   0.32169 
H          H       0.60654   0.84448   0.32169 
H          H       0.73944   0.21262   0.13325 
H          H       0.78738   0.52682   0.13325 
H          H       0.47318   0.26056   0.13325 
H          H       0.26056   0.78738   0.13325 
H          H       0.21262   0.47318   0.13325 
H          H       0.52682   0.73944   0.13325 
H          H       0.83964   0.30550   0.14026 
H          H       0.69450   0.53414   0.14026 
H          H       0.46586   0.16036   0.14026 
H          H       0.16036   0.69450   0.14026 
H          H       0.30550   0.46586   0.14026 
H          H       0.53414   0.83964   0.14026 
H          H       0.74509   0.14502   0.30662 
H          H       0.85498   0.60007   0.30662 
H          H       0.39993   0.25491   0.30662 
H          H       0.25491   0.85498   0.30662 
H          H       0.14502   0.39993   0.30662 
H          H       0.60007   0.74509   0.30662 
C          C       0.18372   0.35357   0.42743 
C          C       0.64643   0.83015   0.42743 
C          C       0.16985   0.81628   0.42743 
C          C       0.81628   0.64643   0.42743 
C          C       0.35357   0.16985   0.42743 
C          C       0.83015   0.18372   0.42743 
C          C       0.26699   0.51312   0.02799 
C          C       0.48688   0.75387   0.02799 
C          C       0.24613   0.73301   0.02799 
C          C       0.73301   0.48688   0.02799 
C          C       0.51312   0.24613   0.02799 
C          C       0.75387   0.26699   0.02799 
H          H       0.16255   0.33453   0.48928 
H          H       0.66547   0.82802   0.48928 
H          H       0.17198   0.83745   0.48928 
H          H       0.83745   0.66547   0.48928 
H          H       0.33453   0.17198   0.48928 
H          H       0.82802   0.16255   0.48928 
H          H       0.19010   0.34396   0.31204 
H          H       0.65604   0.84614   0.31204 
H          H       0.15386   0.80990   0.31204 
H          H       0.80990   0.65604   0.31204 
H          H       0.34396   0.15386   0.31204 
H          H       0.84614   0.19010   0.31204 
H          H       0.20244   0.36257   0.02852 
H          H       0.63743   0.83987   0.02852 
H          H       0.16013   0.79756   0.02852 
H          H       0.79756   0.63743   0.02852 
H          H       0.36257   0.16013   0.02852 
H          H       0.83987   0.20244   0.02852 
H          H       0.26058   0.52270   0.14339 
H          H       0.47730   0.73788   0.14339 
H          H       0.26212   0.73942   0.14339 
H          H       0.73942   0.47730   0.14339 
H          H       0.52270   0.26212   0.14339 
H          H       0.73788   0.26058   0.14339 
H          H       0.24828   0.50414   0.42680 
H          H       0.49586   0.74414   0.42680 
H          H       0.25586   0.75172   0.42680 
H          H       0.75172   0.49586   0.42680 
H          H       0.50414   0.25586   0.42680 
H          H       0.74414   0.24828   0.42680 
H          H       0.28817   0.53218   0.46634 
H          H       0.46782   0.75599   0.46634 
H          H       0.24401   0.71183   0.46634 
H          H       0.71183   0.46782   0.46634 
H          H       0.53218   0.24401   0.46634 
H          H       0.75599   0.28817   0.46634 
C          C       0.41163   0.42814   0.78739 
C          C       0.57186   0.98349   0.78739 
C          C       0.01651   0.58837   0.78739 
C          C       0.58837   0.57186   0.78739 
C          C       0.42814   0.01651   0.78739 
C          C       0.98349   0.41163   0.78739 
C          C       0.43924   0.45589   0.82130 
C          C       0.54411   0.98335   0.82130 
C          C       0.01665   0.56076   0.82130 
C          C       0.56076   0.54411   0.82130 
C          C       0.45589   0.01665   0.82130 
C          C       0.98335   0.43924   0.82130 
C          C       0.46779   0.45662   0.82814 
C          C       0.54338   0.01117   0.82814 
C          C       0.98883   0.53221   0.82814 
C          C       0.53221   0.54338   0.82814 
C          C       0.45662   0.98883   0.82814 
C          C       0.01117   0.46779   0.82814 
C          C       0.49813   0.48570   0.84410 
C          C       0.51430   0.01243   0.84410 
C          C       0.98757   0.50187   0.84410 
C          C       0.50187   0.51430   0.84410 
C          C       0.48570   0.98757   0.84410 
C          C       0.01243   0.49813   0.84410 
C          C       0.46798   0.42871   0.81146 
C          C       0.57129   0.03927   0.81146 
C          C       0.96073   0.53202   0.81146 
C          C       0.53202   0.57129   0.81146 
C          C       0.42871   0.96073   0.81146 
C          C       0.03927   0.46798   0.81146 
C          C       0.44063   0.40067   0.77912 
C          C       0.59933   0.03996   0.77912 
C          C       0.96004   0.55937   0.77912 
C          C       0.55937   0.59933   0.77912 
C          C       0.40067   0.96004   0.77912 
C          C       0.03996   0.44063   0.77912 
C          C       0.41272   0.40085   0.76297 
C          C       0.59915   0.01187   0.76297 
C          C       0.98813   0.58728   0.76297 
C          C       0.58728   0.59915   0.76297 
C          C       0.40085   0.98813   0.76297 
C          C       0.01187   0.41272   0.76297 
C          C       0.32442   0.42633   0.76267 
C          C       0.57367   0.89809   0.76267 
C          C       0.10191   0.67558   0.76267 
C          C       0.67558   0.57367   0.76267 
C          C       0.42633   0.10191   0.76267 
C          C       0.89809   0.32442   0.76267 
C          C       0.35152   0.45201   0.69657 
C          C       0.54799   0.89951   0.69657 
C          C       0.10049   0.64848   0.69657 
C          C       0.64848   0.54799   0.69657 
C          C       0.45201   0.10049   0.69657 
C          C       0.89951   0.35152   0.69657 
C          C       0.37973   0.45250   0.70355 
C          C       0.54750   0.92723   0.70355 
C          C       0.07277   0.62027   0.70355 
C          C       0.62027   0.54750   0.70355 
C          C       0.45250   0.07277   0.70355 
C          C       0.92723   0.37973   0.70355 
C          C       0.38158   0.42757   0.77777 
C          C       0.57243   0.95401   0.77777 
C          C       0.04599   0.61842   0.77777 
C          C       0.61842   0.57243   0.77777 
C          C       0.42757   0.04599   0.77777 
C          C       0.95401   0.38158   0.77777 
C          C       0.35444   0.40208   0.84391 
C          C       0.59792   0.95236   0.84391 
C          C       0.04764   0.64556   0.84391 
C          C       0.64556   0.59792   0.84391 
C          C       0.40208   0.04764   0.84391 
C          C       0.95236   0.35444   0.84391 
C          C       0.32625   0.40150   0.83546 
C          C       0.59850   0.92475   0.83546 
C          C       0.07525   0.67375   0.83546 
C          C       0.67375   0.59850   0.83546 
C          C       0.40150   0.07525   0.83546 
C          C       0.92475   0.32625   0.83546 
C          C       0.41628   0.34344   0.82946 
C          C       0.65656   0.07284   0.82946 
C          C       0.92716   0.58372   0.82946 
C          C       0.58372   0.65656   0.82946 
C          C       0.34344   0.92716   0.82946 
C          C       0.07284   0.41628   0.82946 
C          C       0.44107   0.37117   0.76350 
C          C       0.62883   0.06990   0.76350 
C          C       0.93010   0.55893   0.76350 
C          C       0.55893   0.62883   0.76350 
C          C       0.37117   0.93010   0.76350 
C          C       0.06990   0.44107   0.76350 
C          C       0.46637   0.37045   0.68584 
C          C       0.62955   0.09592   0.68584 
C          C       0.90408   0.53363   0.68584 
C          C       0.53363   0.62955   0.68584 
C          C       0.37045   0.90408   0.68584 
C          C       0.09592   0.46637   0.68584 
C          C       0.46684   0.34277   0.67522 
C          C       0.65723   0.12407   0.67522 
C          C       0.87593   0.53316   0.67522 
C          C       0.53316   0.65723   0.67522 
C          C       0.34277   0.87593   0.67522 
C          C       0.12407   0.46684   0.67522 
C          C       0.44206   0.31516   0.73966 
C          C       0.68484   0.12690   0.73966 
C          C       0.87310   0.55794   0.73966 
C          C       0.55794   0.68484   0.73966 
C          C       0.31516   0.87310   0.73966 
C          C       0.12690   0.44206   0.73966 
C          C       0.41667   0.31574   0.81750 
C          C       0.68426   0.10093   0.81750 
C          C       0.89907   0.58333   0.81750 
C          C       0.58333   0.68426   0.81750 
C          C       0.31574   0.89907   0.81750 
C          C       0.10093   0.41667   0.81750 
N          N       0.29470   0.42432   0.76087 
N          N       0.57568   0.87038   0.76087 
N          N       0.12962   0.70530   0.76087 
N          N       0.70530   0.57568   0.76087 
N          N       0.42432   0.12962   0.76087 
N          N       0.87038   0.29470   0.76087 
N          N       0.55596   0.71253   0.72568 
N          N       0.28747   0.84343   0.72568 
N          N       0.15657   0.44404   0.72568 
N          N       0.44404   0.28747   0.72568 
N          N       0.71253   0.15657   0.72568 
N          N       0.84343   0.55596   0.72568 
C          C       0.78726   0.24900   0.65620 
C          C       0.75100   0.53826   0.65620 
C          C       0.46174   0.21274   0.65620 
C          C       0.21274   0.75100   0.65620 
C          C       0.24900   0.46174   0.65620 
C          C       0.53826   0.78726   0.65620 
C          C       0.81696   0.25584   0.71199 
C          C       0.74416   0.56112   0.71199 
C          C       0.43888   0.18304   0.71199 
C          C       0.18304   0.74416   0.71199 
C          C       0.25584   0.43888   0.71199 
C          C       0.56112   0.81696   0.71199 
C          C       0.82147   0.23223   0.78140 
C          C       0.76777   0.58924   0.78140 
C          C       0.41076   0.17853   0.78140 
C          C       0.17853   0.76777   0.78140 
C          C       0.23223   0.41076   0.78140 
C          C       0.58924   0.82147   0.78140 
C          C       0.79671   0.20166   0.79875 
C          C       0.79834   0.59505   0.79875 
C          C       0.40495   0.20329   0.79875 
C          C       0.20329   0.79834   0.79875 
C          C       0.20166   0.40495   0.79875 
C          C       0.59505   0.79671   0.79875 
C          C       0.76697   0.19486   0.74440 
C          C       0.80514   0.57211   0.74440 
C          C       0.42789   0.23303   0.74440 
C          C       0.23303   0.80514   0.74440 
C          C       0.19486   0.42789   0.74440 
C          C       0.57211   0.76697   0.74440 
C          C       0.76246   0.21841   0.67383 
C          C       0.78159   0.54405   0.67383 
C          C       0.45595   0.23754   0.67383 
C          C       0.23754   0.78159   0.67383 
C          C       0.21841   0.45595   0.67383 
C          C       0.54405   0.76246   0.67383 
C          C       0.84336   0.28790   0.69932 
C          C       0.71210   0.55546   0.69932 
C          C       0.44454   0.15664   0.69932 
C          C       0.15664   0.71210   0.69932 
C          C       0.28790   0.44454   0.69932 
C          C       0.55546   0.84336   0.69932 
C          C       0.74055   0.16293   0.76253 
C          C       0.83707   0.57762   0.76253 
C          C       0.42238   0.25945   0.76253 
C          C       0.25945   0.83707   0.76253 
C          C       0.16293   0.42238   0.76253 
C          C       0.57762   0.74055   0.76253 
O          O       0.17743   0.37720   0.87117 
O          O       0.62280   0.80023   0.87117 
O          O       0.19977   0.82257   0.87117 
O          O       0.82257   0.62280   0.87117 
O          O       0.37720   0.19977   0.87117 
O          O       0.80023   0.17743   0.87117 
O          O       0.27327   0.48948   0.58414 
O          O       0.51052   0.78379   0.58414 
O          O       0.21621   0.72673   0.58414 
O          O       0.72673   0.51052   0.58414 
O          O       0.48948   0.21621   0.58414 
O          O       0.78379   0.27327   0.58414 
H          H       0.43798   0.47654   0.84366 
H          H       0.52346   0.96144   0.84366 
H          H       0.03856   0.56202   0.84366 
H          H       0.56202   0.52346   0.84366 
H          H       0.47654   0.03856   0.84366 
H          H       0.96144   0.43798   0.84366 
H          H       0.51817   0.48291   0.84393 
H          H       0.51709   0.03526   0.84393 
H          H       0.96474   0.48183   0.84393 
H          H       0.48183   0.51709   0.84393 
H          H       0.48291   0.96474   0.84393 
H          H       0.03526   0.51817   0.84393 
H          H       0.48967   0.42891   0.82429 
H          H       0.57109   0.06076   0.82429 
H          H       0.93924   0.51033   0.82429 
H          H       0.51033   0.57109   0.82429 
H          H       0.42891   0.93924   0.82429 
H          H       0.06076   0.48967   0.82429 
H          H       0.39179   0.37969   0.72845 
H          H       0.62031   0.01210   0.72845 
H          H       0.98790   0.60821   0.72845 
H          H       0.60821   0.62031   0.72845 
H          H       0.37969   0.98790   0.72845 
H          H       0.01210   0.39179   0.72845 
H          H       0.35131   0.47165   0.63796 
H          H       0.52835   0.87966   0.63796 
H          H       0.12034   0.64869   0.63796 
H          H       0.64869   0.52835   0.63796 
H          H       0.47165   0.12034   0.63796 
H          H       0.87966   0.35131   0.63796 
H          H       0.40000   0.47220   0.64760 
H          H       0.52780   0.92780   0.64760 
H          H       0.07220   0.60000   0.64760 
H          H       0.60000   0.52780   0.64760 
H          H       0.47220   0.07220   0.64760 
H          H       0.92780   0.40000   0.64760 
H          H       0.35504   0.38279   0.90597 
H          H       0.61721   0.97225   0.90597 
H          H       0.02775   0.64496   0.90597 
H          H       0.64496   0.61721   0.90597 
H          H       0.38279   0.02775   0.90597 
H          H       0.97225   0.35504   0.90597 
H          H       0.30568   0.38170   0.88836 
H          H       0.61830   0.92398   0.88836 
H          H       0.07602   0.69432   0.88836 
H          H       0.69432   0.61830   0.88836 
H          H       0.38170   0.07602   0.88836 
H          H       0.92398   0.30568   0.88836 
H          H       0.39686   0.34323   0.89519 
H          H       0.65677   0.05363   0.89519 
H          H       0.94637   0.60314   0.89519 
H          H       0.60314   0.65677   0.89519 
H          H       0.34323   0.94637   0.89519 
H          H       0.05363   0.39686   0.89519 
H          H       0.48560   0.39115   0.63016 
H          H       0.60885   0.09445   0.63016 
H          H       0.90555   0.51440   0.63016 
H          H       0.51440   0.60885   0.63016 
H          H       0.39115   0.90555   0.63016 
H          H       0.09445   0.48560   0.63016 
H          H       0.48651   0.34273   0.61442 
H          H       0.65727   0.14378   0.61442 
H          H       0.85622   0.51349   0.61442 
H          H       0.51349   0.65727   0.61442 
H          H       0.34273   0.85622   0.61442 
H          H       0.14378   0.48651   0.61442 
H          H       0.39734   0.29531   0.87366 
H          H       0.70469   0.10203   0.87366 
H          H       0.89797   0.60266   0.87366 
H          H       0.60266   0.70469   0.87366 
H          H       0.29531   0.89797   0.87366 
H          H       0.10203   0.39734   0.87366 
H          H       0.84448   0.23794   0.82169 
H          H       0.76206   0.60654   0.82169 
H          H       0.39346   0.15552   0.82169 
H          H       0.15552   0.76206   0.82169 
H          H       0.23794   0.39346   0.82169 
H          H       0.60654   0.84448   0.82169 
H          H       0.73944   0.21262   0.63325 
H          H       0.78738   0.52682   0.63325 
H          H       0.47318   0.26056   0.63325 
H          H       0.26056   0.78738   0.63325 
H          H       0.21262   0.47318   0.63325 
H          H       0.52682   0.73944   0.63325 
H          H       0.83964   0.30550   0.64026 
H          H       0.69450   0.53414   0.64026 
H          H       0.46586   0.16036   0.64026 
H          H       0.16036   0.69450   0.64026 
H          H       0.30550   0.46586   0.64026 
H          H       0.53414   0.83964   0.64026 
H          H       0.74509   0.14502   0.80662 
H          H       0.85498   0.60007   0.80662 
H          H       0.39993   0.25491   0.80662 
H          H       0.25491   0.85498   0.80662 
H          H       0.14502   0.39993   0.80662 
H          H       0.60007   0.74509   0.80662 
C          C       0.18372   0.35357   0.92743 
C          C       0.64643   0.83015   0.92743 
C          C       0.16985   0.81628   0.92743 
C          C       0.81628   0.64643   0.92743 
C          C       0.35357   0.16985   0.92743 
C          C       0.83015   0.18372   0.92743 
C          C       0.26699   0.51312   0.52799 
C          C       0.48688   0.75387   0.52799 
C          C       0.24613   0.73301   0.52799 
C          C       0.73301   0.48688   0.52799 
C          C       0.51312   0.24613   0.52799 
C          C       0.75387   0.26699   0.52799 
H          H       0.16255   0.33453   0.98928 
H          H       0.66547   0.82802   0.98928 
H          H       0.17198   0.83745   0.98928 
H          H       0.83745   0.66547   0.98928 
H          H       0.33453   0.17198   0.98928 
H          H       0.82802   0.16255   0.98928 
H          H       0.19010   0.34396   0.81204 
H          H       0.65604   0.84614   0.81204 
H          H       0.15386   0.80990   0.81204 
H          H       0.80990   0.65604   0.81204 
H          H       0.34396   0.15386   0.81204 
H          H       0.84614   0.19010   0.81204 
H          H       0.20244   0.36257   0.52853 
H          H       0.63743   0.83987   0.52853 
H          H       0.16013   0.79756   0.52853 
H          H       0.79756   0.63743   0.52853 
H          H       0.36257   0.16013   0.52853 
H          H       0.83987   0.20244   0.52853 
H          H       0.26058   0.52270   0.64339 
H          H       0.47730   0.73788   0.64339 
H          H       0.26212   0.73942   0.64339 
H          H       0.73942   0.47730   0.64339 
H          H       0.52270   0.26212   0.64339 
H          H       0.73788   0.26058   0.64339 
H          H       0.24828   0.50414   0.92680 
H          H       0.49586   0.74414   0.92680 
H          H       0.25586   0.75172   0.92680 
H          H       0.75172   0.49586   0.92680 
H          H       0.50414   0.25586   0.92680 
H          H       0.74414   0.24828   0.92680 
H          H       0.28817   0.53218   0.96634 
H          H       0.46782   0.75599   0.96634 
H          H       0.24401   0.71183   0.96634 
H          H       0.71183   0.46782   0.96634 
H          H       0.53218   0.24401   0.96634 
H          H       0.75599   0.28817   0.96634 
