data_crystal

_cell_length_a    48.74990
_cell_length_b    48.74990
_cell_length_c    7.29940
_cell_angle_alpha 90.00000
_cell_angle_beta  90.00000
_cell_angle_gamma 120.00000

_space_group_name_Hall 'P 1'
_space_group_name_H-M_alt  'P 1'

loop_
_symmetry_equiv_pos_as_xyz
'x,y,z' 

loop_
_atom_site_label
_atom_site_type_symbol
_atom_site_fract_x
_atom_site_fract_y
_atom_site_fract_z
C          C       0.41235   0.42727   0.33130 
C          C       0.57273   0.98508   0.33130 
C          C       0.01492   0.58765   0.33130 
C          C       0.58765   0.57273   0.33130 
C          C       0.42727   0.01492   0.33130 
C          C       0.98508   0.41235   0.33130 
C          C       0.43947   0.45503   0.37836 
C          C       0.54497   0.98444   0.37836 
C          C       0.01556   0.56053   0.37836 
C          C       0.56053   0.54497   0.37836 
C          C       0.45503   0.01556   0.37836 
C          C       0.98444   0.43947   0.37836 
C          C       0.46833   0.45629   0.39042 
C          C       0.54371   0.01204   0.39042 
C          C       0.98796   0.53167   0.39042 
C          C       0.53167   0.54371   0.39042 
C          C       0.45629   0.98796   0.39042 
C          C       0.01204   0.46833   0.39042 
C          C       0.49841   0.48576   0.41289 
C          C       0.51424   0.01265   0.41289 
C          C       0.98735   0.50159   0.41289 
C          C       0.50159   0.51424   0.41289 
C          C       0.48576   0.98735   0.41289 
C          C       0.01265   0.49841   0.41289 
C          C       0.46923   0.42873   0.36805 
C          C       0.57127   0.04050   0.36805 
C          C       0.95950   0.53077   0.36805 
C          C       0.53077   0.57127   0.36805 
C          C       0.42873   0.95950   0.36805 
C          C       0.04050   0.46923   0.36805 
C          C       0.44244   0.40062   0.32182 
C          C       0.59938   0.04182   0.32182 
C          C       0.95818   0.55756   0.32182 
C          C       0.55756   0.59938   0.32182 
C          C       0.40062   0.95818   0.32182 
C          C       0.04182   0.44244   0.32182 
C          C       0.41427   0.40041   0.29971 
C          C       0.59959   0.01386   0.29971 
C          C       0.98614   0.58573   0.29971 
C          C       0.58573   0.59959   0.29971 
C          C       0.40041   0.98614   0.29971 
C          C       0.01386   0.41427   0.29971 
C          C       0.32474   0.42495   0.27851 
C          C       0.57505   0.89979   0.27851 
C          C       0.10021   0.67526   0.27851 
C          C       0.67526   0.57505   0.27851 
C          C       0.42495   0.10021   0.27851 
C          C       0.89979   0.32474   0.27851 
C          C       0.35260   0.45162   0.22575 
C          C       0.54838   0.90098   0.22575 
C          C       0.09902   0.64740   0.22575 
C          C       0.64740   0.54838   0.22575 
C          C       0.45162   0.09902   0.22575 
C          C       0.90098   0.35260   0.22575 
C          C       0.38089   0.45227   0.24219 
C          C       0.54773   0.92862   0.24219 
C          C       0.07138   0.61911   0.24219 
C          C       0.61911   0.54773   0.24219 
C          C       0.45227   0.07138   0.24219 
C          C       0.92862   0.38089   0.24219 
C          C       0.38212   0.42644   0.31209 
C          C       0.57356   0.95568   0.31209 
C          C       0.04432   0.61788   0.31209 
C          C       0.61788   0.57356   0.31209 
C          C       0.42644   0.04432   0.31209 
C          C       0.95568   0.38212   0.31209 
C          C       0.35419   0.39984   0.36372 
C          C       0.60016   0.95435   0.36372 
C          C       0.04565   0.64581   0.36372 
C          C       0.64581   0.60016   0.36372 
C          C       0.39984   0.04565   0.36372 
C          C       0.95435   0.35419   0.36372 
C          C       0.32588   0.39911   0.34562 
C          C       0.60089   0.92677   0.34562 
C          C       0.07323   0.67412   0.34562 
C          C       0.67412   0.60089   0.34562 
C          C       0.39911   0.07323   0.34562 
C          C       0.92677   0.32588   0.34562 
C          C       0.41837   0.34246   0.34003 
C          C       0.65754   0.07591   0.34003 
C          C       0.92409   0.58163   0.34003 
C          C       0.58163   0.65754   0.34003 
C          C       0.34246   0.92409   0.34003 
C          C       0.07591   0.41837   0.34003 
C          C       0.44393   0.37165   0.29435 
C          C       0.62835   0.07228   0.29435 
C          C       0.92772   0.55607   0.29435 
C          C       0.55607   0.62835   0.29435 
C          C       0.37165   0.92772   0.29435 
C          C       0.07228   0.44393   0.29435 
C          C       0.47105   0.37285   0.22538 
C          C       0.62715   0.09820   0.22538 
C          C       0.90180   0.52895   0.22538 
C          C       0.52895   0.62715   0.22538 
C          C       0.37285   0.90180   0.22538 
C          C       0.09820   0.47105   0.22538 
C          C       0.47260   0.34575   0.20453 
C          C       0.65425   0.12685   0.20453 
C          C       0.87315   0.52740   0.20453 
C          C       0.52740   0.65425   0.20453 
C          C       0.34575   0.87315   0.20453 
C          C       0.12685   0.47260   0.20453 
C          C       0.44697   0.31682   0.24656 
C          C       0.68318   0.13015   0.24656 
C          C       0.86985   0.55303   0.24656 
C          C       0.55303   0.68318   0.24656 
C          C       0.31682   0.86985   0.24656 
C          C       0.13015   0.44697   0.24656 
C          C       0.41978   0.31533   0.31540 
C          C       0.68467   0.10445   0.31540 
C          C       0.89555   0.58022   0.31540 
C          C       0.58022   0.68467   0.31540 
C          C       0.31533   0.89555   0.31540 
C          C       0.10445   0.41978   0.31540 
N          N       0.29485   0.42268   0.26261 
N          N       0.57732   0.87217   0.26261 
N          N       0.12783   0.70515   0.26261 
N          N       0.70515   0.57732   0.26261 
N          N       0.42268   0.12783   0.26261 
N          N       0.87217   0.29485   0.26261 
N          N       0.55020   0.71031   0.22401 
N          N       0.28969   0.83989   0.22401 
N          N       0.16011   0.44980   0.22401 
N          N       0.44980   0.28969   0.22401 
N          N       0.71031   0.16011   0.22401 
N          N       0.83989   0.55020   0.22401 
C          C       0.82084   0.22721   0.25839 
C          C       0.77279   0.59363   0.25839 
C          C       0.40637   0.17916   0.25839 
C          C       0.17916   0.77279   0.25839 
C          C       0.22721   0.40637   0.25839 
C          C       0.59363   0.82084   0.25839 
C          C       0.81811   0.25407   0.24713 
C          C       0.74593   0.56404   0.24713 
C          C       0.43596   0.18189   0.24713 
C          C       0.18189   0.74593   0.24713 
C          C       0.25407   0.43596   0.24713 
C          C       0.56404   0.81811   0.24713 
C          C       0.79091   0.25165   0.17233 
C          C       0.74835   0.53926   0.17233 
C          C       0.46074   0.20909   0.17233 
C          C       0.20909   0.74835   0.17233 
C          C       0.25165   0.46074   0.17233 
C          C       0.53926   0.79091   0.17233 
C          C       0.76657   0.22332   0.10847 
C          C       0.77668   0.54325   0.10847 
C          C       0.45675   0.23343   0.10847 
C          C       0.23343   0.77668   0.10847 
C          C       0.22332   0.45675   0.10847 
C          C       0.54325   0.76657   0.10847 
C          C       0.76867   0.19605   0.12734 
C          C       0.80395   0.57262   0.12734 
C          C       0.42738   0.23133   0.12734 
C          C       0.23133   0.80395   0.12734 
C          C       0.19605   0.42738   0.12734 
C          C       0.57262   0.76867   0.12734 
C          C       0.79613   0.19857   0.19859 
C          C       0.80143   0.59756   0.19859 
C          C       0.40244   0.20387   0.19859 
C          C       0.20387   0.80143   0.19859 
C          C       0.19857   0.40244   0.19859 
C          C       0.59756   0.79613   0.19859 
C          C       0.84435   0.28938   0.22441 
C          C       0.71062   0.55497   0.22441 
C          C       0.44503   0.15565   0.22441 
C          C       0.15565   0.71062   0.22441 
C          C       0.28938   0.44503   0.22441 
C          C       0.55497   0.84435   0.22441 
C          C       0.73819   0.16524   0.19251 
C          C       0.83476   0.57295   0.19251 
C          C       0.42705   0.26181   0.19251 
C          C       0.26181   0.83476   0.19251 
C          C       0.16524   0.42705   0.19251 
C          C       0.57295   0.73819   0.19251 
O          O       0.22373   0.48223   0.02252 
O          O       0.51777   0.74150   0.02252 
O          O       0.25850   0.77627   0.02252 
O          O       0.77627   0.51777   0.02252 
O          O       0.48223   0.25850   0.02252 
O          O       0.74150   0.22373   0.02252 
O          O       0.22890   0.38116   0.33165 
O          O       0.61884   0.84774   0.33165 
O          O       0.15226   0.77110   0.33165 
O          O       0.77110   0.61884   0.33165 
O          O       0.38116   0.15226   0.33165 
O          O       0.84774   0.22890   0.33165 
H          H       0.43830   0.47696   0.40741 
H          H       0.52304   0.96134   0.40741 
H          H       0.03866   0.56170   0.40741 
H          H       0.56170   0.52304   0.40741 
H          H       0.47696   0.03866   0.40741 
H          H       0.96134   0.43830   0.40741 
H          H       0.52082   0.48510   0.43176 
H          H       0.51490   0.03572   0.43176 
H          H       0.96428   0.47918   0.43176 
H          H       0.47918   0.51490   0.43176 
H          H       0.48510   0.96428   0.43176 
H          H       0.03572   0.52082   0.43176 
H          H       0.49203   0.42884   0.38738 
H          H       0.57116   0.06319   0.38738 
H          H       0.93681   0.50797   0.38738 
H          H       0.50797   0.57116   0.38738 
H          H       0.42884   0.93681   0.38738 
H          H       0.06319   0.49203   0.38738 
H          H       0.39274   0.37793   0.25534 
H          H       0.62207   0.01481   0.25534 
H          H       0.98519   0.60726   0.25534 
H          H       0.60726   0.62207   0.25534 
H          H       0.37793   0.98519   0.25534 
H          H       0.01481   0.39274   0.25534 
H          H       0.35213   0.47282   0.16927 
H          H       0.52718   0.87931   0.16927 
H          H       0.12069   0.64787   0.16927 
H          H       0.64787   0.52718   0.16927 
H          H       0.47282   0.12069   0.16927 
H          H       0.87931   0.35213   0.16927 
H          H       0.40335   0.47390   0.19873 
H          H       0.52610   0.92945   0.19873 
H          H       0.07055   0.59665   0.19873 
H          H       0.59665   0.52610   0.19873 
H          H       0.47390   0.07055   0.19873 
H          H       0.92945   0.40335   0.19873 
H          H       0.35452   0.37860   0.42095 
H          H       0.62140   0.97592   0.42095 
H          H       0.02408   0.64548   0.42095 
H          H       0.64548   0.62140   0.42095 
H          H       0.37860   0.02408   0.42095 
H          H       0.97592   0.35452   0.42095 
H          H       0.30353   0.37713   0.38626 
H          H       0.62287   0.92640   0.38626 
H          H       0.07360   0.69647   0.38626 
H          H       0.69647   0.62287   0.38626 
H          H       0.37713   0.07360   0.38626 
H          H       0.92640   0.30353   0.38626 
H          H       0.39621   0.34079   0.39781 
H          H       0.65921   0.05542   0.39781 
H          H       0.94458   0.60379   0.39781 
H          H       0.60379   0.65921   0.39781 
H          H       0.34079   0.94458   0.39781 
H          H       0.05542   0.39621   0.39781 
H          H       0.49202   0.39611   0.18593 
H          H       0.60389   0.09591   0.18593 
H          H       0.90409   0.50798   0.18593 
H          H       0.50798   0.60389   0.18593 
H          H       0.39611   0.90409   0.18593 
H          H       0.09591   0.49202   0.18593 
H          H       0.49494   0.34711   0.15278 
H          H       0.65289   0.14783   0.15278 
H          H       0.85217   0.50506   0.15278 
H          H       0.50506   0.65289   0.15278 
H          H       0.34711   0.85217   0.15278 
H          H       0.14783   0.49494   0.15278 
H          H       0.39881   0.29184   0.35121 
H          H       0.70816   0.10697   0.35121 
H          H       0.89303   0.60119   0.35121 
H          H       0.60119   0.70816   0.35121 
H          H       0.29184   0.89303   0.35121 
H          H       0.10697   0.39881   0.35121 
H          H       0.78829   0.27310   0.16256 
H          H       0.72690   0.51519   0.16256 
H          H       0.48481   0.21171   0.16256 
H          H       0.21171   0.72690   0.16256 
H          H       0.27310   0.48481   0.16256 
H          H       0.51519   0.78829   0.16256 
H          H       0.79815   0.17677   0.20741 
H          H       0.82323   0.62138   0.20741 
H          H       0.37862   0.20185   0.20741 
H          H       0.20185   0.82323   0.20741 
H          H       0.17677   0.37862   0.20741 
H          H       0.62138   0.79815   0.20741 
H          H       0.83791   0.30738   0.17805 
H          H       0.69262   0.53053   0.17805 
H          H       0.46947   0.16209   0.17805 
H          H       0.16209   0.69262   0.17805 
H          H       0.30738   0.46947   0.17805 
H          H       0.53053   0.83791   0.17805 
H          H       0.73905   0.14308   0.21876 
H          H       0.85692   0.59597   0.21876 
H          H       0.40403   0.26095   0.21876 
H          H       0.26095   0.85692   0.21876 
H          H       0.14308   0.40403   0.21876 
H          H       0.59597   0.73905   0.21876 
H          H       0.19957   0.47741   0.00381 
H          H       0.52259   0.72216   0.00381 
H          H       0.27784   0.80043   0.00381 
H          H       0.80043   0.52259   0.00381 
H          H       0.47741   0.27784   0.00381 
H          H       0.72216   0.19957   0.00381 
H          H       0.25343   0.38849   0.36474 
H          H       0.61151   0.86494   0.36474 
H          H       0.13506   0.74657   0.36474 
H          H       0.74657   0.61151   0.36474 
H          H       0.38849   0.13506   0.36474 
H          H       0.86494   0.25343   0.36474 
C          C       0.41235   0.42727   0.83130 
C          C       0.57273   0.98508   0.83130 
C          C       0.01492   0.58765   0.83130 
C          C       0.58765   0.57273   0.83130 
C          C       0.42727   0.01492   0.83130 
C          C       0.98508   0.41235   0.83130 
C          C       0.43947   0.45503   0.87836 
C          C       0.54497   0.98444   0.87836 
C          C       0.01556   0.56053   0.87836 
C          C       0.56053   0.54497   0.87836 
C          C       0.45503   0.01556   0.87836 
C          C       0.98444   0.43947   0.87836 
C          C       0.46833   0.45629   0.89042 
C          C       0.54371   0.01204   0.89042 
C          C       0.98796   0.53167   0.89042 
C          C       0.53167   0.54371   0.89042 
C          C       0.45629   0.98796   0.89042 
C          C       0.01204   0.46833   0.89042 
C          C       0.49841   0.48576   0.91289 
C          C       0.51424   0.01265   0.91289 
C          C       0.98735   0.50159   0.91289 
C          C       0.50159   0.51424   0.91289 
C          C       0.48576   0.98735   0.91289 
C          C       0.01265   0.49841   0.91289 
C          C       0.46923   0.42873   0.86805 
C          C       0.57127   0.04050   0.86805 
C          C       0.95950   0.53077   0.86805 
C          C       0.53077   0.57127   0.86805 
C          C       0.42873   0.95950   0.86805 
C          C       0.04050   0.46923   0.86805 
C          C       0.44244   0.40062   0.82182 
C          C       0.59938   0.04182   0.82182 
C          C       0.95818   0.55756   0.82182 
C          C       0.55756   0.59938   0.82182 
C          C       0.40062   0.95818   0.82182 
C          C       0.04182   0.44244   0.82182 
C          C       0.41427   0.40041   0.79971 
C          C       0.59959   0.01386   0.79971 
C          C       0.98614   0.58573   0.79971 
C          C       0.58573   0.59959   0.79971 
C          C       0.40041   0.98614   0.79971 
C          C       0.01386   0.41427   0.79971 
C          C       0.32474   0.42495   0.77850 
C          C       0.57505   0.89979   0.77850 
C          C       0.10021   0.67526   0.77850 
C          C       0.67526   0.57505   0.77850 
C          C       0.42495   0.10021   0.77850 
C          C       0.89979   0.32474   0.77850 
C          C       0.35260   0.45162   0.72574 
C          C       0.54838   0.90098   0.72574 
C          C       0.09902   0.64740   0.72574 
C          C       0.64740   0.54838   0.72574 
C          C       0.45162   0.09902   0.72574 
C          C       0.90098   0.35260   0.72574 
C          C       0.38089   0.45227   0.74218 
C          C       0.54773   0.92862   0.74218 
C          C       0.07138   0.61911   0.74218 
C          C       0.61911   0.54773   0.74218 
C          C       0.45227   0.07138   0.74218 
C          C       0.92862   0.38089   0.74218 
C          C       0.38212   0.42644   0.81209 
C          C       0.57356   0.95568   0.81209 
C          C       0.04432   0.61788   0.81209 
C          C       0.61788   0.57356   0.81209 
C          C       0.42644   0.04432   0.81209 
C          C       0.95568   0.38212   0.81209 
C          C       0.35419   0.39984   0.86372 
C          C       0.60016   0.95435   0.86372 
C          C       0.04565   0.64581   0.86372 
C          C       0.64581   0.60016   0.86372 
C          C       0.39984   0.04565   0.86372 
C          C       0.95435   0.35419   0.86372 
C          C       0.32588   0.39911   0.84562 
C          C       0.60089   0.92677   0.84562 
C          C       0.07323   0.67412   0.84562 
C          C       0.67412   0.60089   0.84562 
C          C       0.39911   0.07323   0.84562 
C          C       0.92677   0.32588   0.84562 
C          C       0.41837   0.34246   0.84003 
C          C       0.65754   0.07591   0.84003 
C          C       0.92409   0.58163   0.84003 
C          C       0.58163   0.65754   0.84003 
C          C       0.34246   0.92409   0.84003 
C          C       0.07591   0.41837   0.84003 
C          C       0.44393   0.37165   0.79434 
C          C       0.62835   0.07228   0.79434 
C          C       0.92772   0.55607   0.79434 
C          C       0.55607   0.62835   0.79434 
C          C       0.37165   0.92772   0.79434 
C          C       0.07228   0.44393   0.79434 
C          C       0.47105   0.37285   0.72538 
C          C       0.62715   0.09820   0.72538 
C          C       0.90180   0.52895   0.72538 
C          C       0.52895   0.62715   0.72538 
C          C       0.37285   0.90180   0.72538 
C          C       0.09820   0.47105   0.72538 
C          C       0.47260   0.34575   0.70453 
C          C       0.65425   0.12685   0.70453 
C          C       0.87315   0.52740   0.70453 
C          C       0.52740   0.65425   0.70453 
C          C       0.34575   0.87315   0.70453 
C          C       0.12685   0.47260   0.70453 
C          C       0.44697   0.31682   0.74656 
C          C       0.68318   0.13015   0.74656 
C          C       0.86985   0.55303   0.74656 
C          C       0.55303   0.68318   0.74656 
C          C       0.31682   0.86985   0.74656 
C          C       0.13015   0.44697   0.74656 
C          C       0.41978   0.31533   0.81540 
C          C       0.68467   0.10445   0.81540 
C          C       0.89555   0.58022   0.81540 
C          C       0.58022   0.68467   0.81540 
C          C       0.31533   0.89555   0.81540 
C          C       0.10445   0.41978   0.81540 
N          N       0.29485   0.42268   0.76261 
N          N       0.57732   0.87217   0.76261 
N          N       0.12783   0.70515   0.76261 
N          N       0.70515   0.57732   0.76261 
N          N       0.42268   0.12783   0.76261 
N          N       0.87217   0.29485   0.76261 
N          N       0.55020   0.71031   0.72401 
N          N       0.28969   0.83989   0.72401 
N          N       0.16011   0.44980   0.72401 
N          N       0.44980   0.28969   0.72401 
N          N       0.71031   0.16011   0.72401 
N          N       0.83989   0.55020   0.72401 
C          C       0.82084   0.22721   0.75839 
C          C       0.77279   0.59363   0.75839 
C          C       0.40637   0.17916   0.75839 
C          C       0.17916   0.77279   0.75839 
C          C       0.22721   0.40637   0.75839 
C          C       0.59363   0.82084   0.75839 
C          C       0.81811   0.25407   0.74713 
C          C       0.74593   0.56404   0.74713 
C          C       0.43596   0.18189   0.74713 
C          C       0.18189   0.74593   0.74713 
C          C       0.25407   0.43596   0.74713 
C          C       0.56404   0.81811   0.74713 
C          C       0.79091   0.25165   0.67233 
C          C       0.74835   0.53926   0.67233 
C          C       0.46074   0.20909   0.67233 
C          C       0.20909   0.74835   0.67233 
C          C       0.25165   0.46074   0.67233 
C          C       0.53926   0.79091   0.67233 
C          C       0.76657   0.22332   0.60847 
C          C       0.77668   0.54325   0.60847 
C          C       0.45675   0.23343   0.60847 
C          C       0.23343   0.77668   0.60847 
C          C       0.22332   0.45675   0.60847 
C          C       0.54325   0.76657   0.60847 
C          C       0.76867   0.19605   0.62734 
C          C       0.80395   0.57262   0.62734 
C          C       0.42738   0.23133   0.62734 
C          C       0.23133   0.80395   0.62734 
C          C       0.19605   0.42738   0.62734 
C          C       0.57262   0.76867   0.62734 
C          C       0.79613   0.19857   0.69859 
C          C       0.80143   0.59756   0.69859 
C          C       0.40244   0.20387   0.69859 
C          C       0.20387   0.80143   0.69859 
C          C       0.19857   0.40244   0.69859 
C          C       0.59756   0.79613   0.69859 
C          C       0.84435   0.28938   0.72441 
C          C       0.71062   0.55497   0.72441 
C          C       0.44503   0.15565   0.72441 
C          C       0.15565   0.71062   0.72441 
C          C       0.28938   0.44503   0.72441 
C          C       0.55497   0.84435   0.72441 
C          C       0.73819   0.16524   0.69251 
C          C       0.83476   0.57295   0.69251 
C          C       0.42705   0.26181   0.69251 
C          C       0.26181   0.83476   0.69251 
C          C       0.16524   0.42705   0.69251 
C          C       0.57295   0.73819   0.69251 
O          O       0.22373   0.48223   0.52253 
O          O       0.51777   0.74150   0.52253 
O          O       0.25850   0.77627   0.52253 
O          O       0.77627   0.51777   0.52253 
O          O       0.48223   0.25850   0.52253 
O          O       0.74150   0.22373   0.52253 
O          O       0.22890   0.38116   0.83166 
O          O       0.61884   0.84774   0.83166 
O          O       0.15226   0.77110   0.83166 
O          O       0.77110   0.61884   0.83166 
O          O       0.38116   0.15226   0.83166 
O          O       0.84774   0.22890   0.83166 
H          H       0.43830   0.47696   0.90741 
H          H       0.52304   0.96134   0.90741 
H          H       0.03866   0.56170   0.90741 
H          H       0.56170   0.52304   0.90741 
H          H       0.47696   0.03866   0.90741 
H          H       0.96134   0.43830   0.90741 
H          H       0.52082   0.48510   0.93176 
H          H       0.51490   0.03572   0.93176 
H          H       0.96428   0.47918   0.93176 
H          H       0.47918   0.51490   0.93176 
H          H       0.48510   0.96428   0.93176 
H          H       0.03572   0.52082   0.93176 
H          H       0.49203   0.42884   0.88738 
H          H       0.57116   0.06319   0.88738 
H          H       0.93681   0.50797   0.88738 
H          H       0.50797   0.57116   0.88738 
H          H       0.42884   0.93681   0.88738 
H          H       0.06319   0.49203   0.88738 
H          H       0.39274   0.37793   0.75534 
H          H       0.62207   0.01481   0.75534 
H          H       0.98519   0.60726   0.75534 
H          H       0.60726   0.62207   0.75534 
H          H       0.37793   0.98519   0.75534 
H          H       0.01481   0.39274   0.75534 
H          H       0.35213   0.47282   0.66927 
H          H       0.52718   0.87931   0.66927 
H          H       0.12069   0.64787   0.66927 
H          H       0.64787   0.52718   0.66927 
H          H       0.47282   0.12069   0.66927 
H          H       0.87931   0.35213   0.66927 
H          H       0.40335   0.47390   0.69873 
H          H       0.52610   0.92945   0.69873 
H          H       0.07055   0.59665   0.69873 
H          H       0.59665   0.52610   0.69873 
H          H       0.47390   0.07055   0.69873 
H          H       0.92945   0.40335   0.69873 
H          H       0.35452   0.37860   0.92095 
H          H       0.62140   0.97592   0.92095 
H          H       0.02408   0.64548   0.92095 
H          H       0.64548   0.62140   0.92095 
H          H       0.37860   0.02408   0.92095 
H          H       0.97592   0.35452   0.92095 
H          H       0.30353   0.37713   0.88626 
H          H       0.62287   0.92640   0.88626 
H          H       0.07360   0.69647   0.88626 
H          H       0.69647   0.62287   0.88626 
H          H       0.37713   0.07360   0.88626 
H          H       0.92640   0.30353   0.88626 
H          H       0.39621   0.34079   0.89781 
H          H       0.65921   0.05542   0.89781 
H          H       0.94458   0.60379   0.89781 
H          H       0.60379   0.65921   0.89781 
H          H       0.34079   0.94458   0.89781 
H          H       0.05542   0.39621   0.89781 
H          H       0.49202   0.39611   0.68593 
H          H       0.60389   0.09591   0.68593 
H          H       0.90409   0.50798   0.68593 
H          H       0.50798   0.60389   0.68593 
H          H       0.39611   0.90409   0.68593 
H          H       0.09591   0.49202   0.68593 
H          H       0.49494   0.34711   0.65278 
H          H       0.65289   0.14783   0.65278 
H          H       0.85217   0.50506   0.65278 
H          H       0.50506   0.65289   0.65278 
H          H       0.34711   0.85217   0.65278 
H          H       0.14783   0.49494   0.65278 
H          H       0.39881   0.29184   0.85121 
H          H       0.70816   0.10697   0.85121 
H          H       0.89303   0.60119   0.85121 
H          H       0.60119   0.70816   0.85121 
H          H       0.29184   0.89303   0.85121 
H          H       0.10697   0.39881   0.85121 
H          H       0.78829   0.27310   0.66256 
H          H       0.72690   0.51519   0.66256 
H          H       0.48481   0.21171   0.66256 
H          H       0.21171   0.72690   0.66256 
H          H       0.27310   0.48481   0.66256 
H          H       0.51519   0.78829   0.66256 
H          H       0.79815   0.17677   0.70741 
H          H       0.82323   0.62138   0.70741 
H          H       0.37862   0.20185   0.70741 
H          H       0.20185   0.82323   0.70741 
H          H       0.17677   0.37862   0.70741 
H          H       0.62138   0.79815   0.70741 
H          H       0.83791   0.30738   0.67805 
H          H       0.69262   0.53053   0.67805 
H          H       0.46947   0.16209   0.67805 
H          H       0.16209   0.69262   0.67805 
H          H       0.30738   0.46947   0.67805 
H          H       0.53053   0.83791   0.67805 
H          H       0.73905   0.14308   0.71876 
H          H       0.85692   0.59597   0.71876 
H          H       0.40403   0.26095   0.71876 
H          H       0.26095   0.85692   0.71876 
H          H       0.14308   0.40403   0.71876 
H          H       0.59597   0.73905   0.71876 
H          H       0.19957   0.47741   0.50381 
H          H       0.52259   0.72216   0.50381 
H          H       0.27784   0.80043   0.50381 
H          H       0.80043   0.52259   0.50381 
H          H       0.47741   0.27784   0.50381 
H          H       0.72216   0.19957   0.50381 
H          H       0.25343   0.38849   0.86474 
H          H       0.61151   0.86494   0.86474 
H          H       0.13506   0.74657   0.86474 
H          H       0.74657   0.61151   0.86474 
H          H       0.38849   0.13506   0.86474 
H          H       0.86494   0.25343   0.86474 
