data_crystal
 
_cell_length_a    25.80700
_cell_length_b    25.80700
_cell_length_c    11.01000
_cell_angle_alpha 90.00000
_cell_angle_beta  90.00000
_cell_angle_gamma 120.00000
 
_symmetry_space_group_name_Hall 'P 1'
_symmetry_space_group_name_H-M  'P 1'
 
loop_
_symmetry_equiv_pos_as_xyz
 'x,y,z' 
 
loop_
_atom_site_label
_atom_site_type_symbol
_atom_site_fract_x
_atom_site_fract_y
_atom_site_fract_z
C          C       0.07247   0.94388   0.47863 
C          C       0.05612   0.12859   0.47863 
C          C       0.87141   0.92753   0.47863 
C          C       0.92753   0.05612   0.47863 
C          C       0.94388   0.87141   0.47863 
C          C       0.12859   0.07247   0.47863 
C          C       0.07008   0.90770   0.07544 
C          C       0.09230   0.16238   0.07544 
C          C       0.83762   0.92992   0.07544 
C          C       0.92992   0.09230   0.07544 
C          C       0.90770   0.83762   0.07544 
C          C       0.16238   0.07008   0.07544 
C          C       0.10424   0.88008   0.07353 
C          C       0.11992   0.22416   0.07353 
C          C       0.77584   0.89576   0.07353 
C          C       0.89576   0.11992   0.07353 
C          C       0.88008   0.77584   0.07353 
C          C       0.22416   0.10424   0.07353 
C          C       0.14225   0.88902   0.47483 
C          C       0.11098   0.25323   0.47483 
C          C       0.74677   0.85775   0.47483 
C          C       0.85775   0.11098   0.47483 
C          C       0.88902   0.74677   0.47483 
C          C       0.25323   0.14225   0.47483 
C          C       0.14499   0.92562   0.37833 
C          C       0.07438   0.21937   0.37833 
C          C       0.78063   0.85501   0.37833 
C          C       0.85501   0.07438   0.37833 
C          C       0.92562   0.78063   0.37833 
C          C       0.21937   0.14499   0.37833 
C          C       0.11002   0.95235   0.37998 
C          C       0.04765   0.15767   0.37998 
C          C       0.84233   0.88998   0.37998 
C          C       0.88998   0.04765   0.37998 
C          C       0.95235   0.84233   0.37998 
C          C       0.15767   0.11002   0.37998 
C          C       0.17891   0.86050   0.47029 
C          C       0.13950   0.31841   0.47029 
C          C       0.68159   0.82109   0.47029 
C          C       0.82109   0.13950   0.47029 
C          C       0.86050   0.68159   0.47029 
C          C       0.31841   0.17891   0.47029 
N          N       0.17893   0.82812   0.06047 
N          N       0.17188   0.35081   0.06047 
N          N       0.64919   0.82107   0.06047 
N          N       0.82107   0.17188   0.06047 
N          N       0.82812   0.64919   0.06047 
N          N       0.35081   0.17893   0.06047 
C          C       0.06268   0.03533   0.48006 
C          C       0.96467   0.02735   0.48006 
C          C       0.97265   0.93732   0.48006 
C          C       0.93732   0.96467   0.48006 
C          C       0.03533   0.97265   0.48006 
C          C       0.02735   0.06268   0.48006 
H          H       0.04169   0.90097   0.15216 
H          H       0.09903   0.14072   0.15216 
H          H       0.85928   0.95831   0.15216 
H          H       0.95831   0.09903   0.15216 
H          H       0.90097   0.85928   0.15216 
H          H       0.14072   0.04169   0.15216 
H          H       0.10087   0.85185   0.14917 
H          H       0.14815   0.24902   0.14917 
H          H       0.75098   0.89913   0.14917 
H          H       0.89913   0.14815   0.14917 
H          H       0.85185   0.75098   0.14917 
H          H       0.24902   0.10087   0.14917 
H          H       0.17403   0.93336   0.30134 
H          H       0.06664   0.24067   0.30134 
H          H       0.75933   0.82597   0.30134 
H          H       0.82597   0.06664   0.30134 
H          H       0.93336   0.75933   0.30134 
H          H       0.24067   0.17403   0.30134 
H          H       0.11188   0.97950   0.30434 
H          H       0.02050   0.13238   0.30434 
H          H       0.86762   0.88812   0.30434 
H          H       0.88812   0.02050   0.30434 
H          H       0.97950   0.86762   0.30434 
H          H       0.13238   0.11188   0.30434 
H          H       0.20471   0.86628   0.38895 
H          H       0.13372   0.33843   0.38895 
H          H       0.66157   0.79529   0.38895 
H          H       0.79529   0.13372   0.38895 
H          H       0.86628   0.66157   0.38895 
H          H       0.33843   0.20471   0.38895 
C          C       0.41442   0.21233   0.06779 
C          C       0.78767   0.20209   0.06779 
C          C       0.79791   0.58558   0.06779 
C          C       0.58558   0.78767   0.06779 
C          C       0.21233   0.79791   0.06779 
C          C       0.20209   0.41442   0.06779 
C          C       0.44227   0.19755   0.15940 
C          C       0.80245   0.24472   0.15940 
C          C       0.75528   0.55773   0.15940 
C          C       0.55773   0.80245   0.15940 
C          C       0.19755   0.75528   0.15940 
C          C       0.24472   0.44227   0.15940 
C          C       0.50403   0.22752   0.16892 
C          C       0.77248   0.27651   0.16892 
C          C       0.72349   0.49597   0.16892 
C          C       0.49597   0.77248   0.16892 
C          C       0.22752   0.72349   0.16892 
C          C       0.27651   0.50403   0.16892 
C          C       0.53898   0.27367   0.08790 
C          C       0.72633   0.26531   0.08790 
C          C       0.73469   0.46102   0.08790 
C          C       0.46102   0.72633   0.08790 
C          C       0.27367   0.73469   0.08790 
C          C       0.26531   0.53898   0.08790 
C          C       0.51121   0.28967   0.49802 
C          C       0.71033   0.22154   0.49802 
C          C       0.77846   0.48879   0.49802 
C          C       0.48879   0.71033   0.49802 
C          C       0.28967   0.77846   0.49802 
C          C       0.22154   0.51121   0.49802 
C          C       0.44950   0.25935   0.48775 
C          C       0.74065   0.19015   0.48775 
C          C       0.80985   0.55050   0.48775 
C          C       0.55050   0.74065   0.48775 
C          C       0.25935   0.80985   0.48775 
C          C       0.19015   0.44950   0.48775 
C          C       0.60435   0.30427   0.09485 
C          C       0.69573   0.30008   0.09485 
C          C       0.69992   0.39565   0.09485 
C          C       0.39565   0.69573   0.09485 
C          C       0.30427   0.69992   0.09485 
C          C       0.30008   0.60435   0.09485 
C          C       0.63777   0.36640   0.09520 
C          C       0.63360   0.27137   0.09520 
C          C       0.72863   0.36223   0.09520 
C          C       0.36223   0.63360   0.09520 
C          C       0.36640   0.72863   0.09520 
C          C       0.27137   0.63777   0.09520 
H          H       0.61538   0.39201   0.09333 
H          H       0.60799   0.22337   0.09333 
H          H       0.77663   0.38462   0.09333 
H          H       0.38462   0.60799   0.09333 
H          H       0.39201   0.77663   0.09333 
H          H       0.22337   0.61538   0.09333 
H          H       0.41592   0.16211   0.22278 
H          H       0.83789   0.25381   0.22278 
H          H       0.74619   0.58408   0.22278 
H          H       0.58408   0.83789   0.22278 
H          H       0.16211   0.74619   0.22278 
H          H       0.25381   0.41592   0.22278 
H          H       0.52455   0.21492   0.23982 
H          H       0.78508   0.30963   0.23982 
H          H       0.69037   0.47545   0.23982 
H          H       0.47545   0.78508   0.23982 
H          H       0.21492   0.69037   0.23982 
H          H       0.30963   0.52455   0.23982 
H          H       0.53739   0.32503   0.43430 
H          H       0.67497   0.21236   0.43430 
H          H       0.78764   0.46261   0.43430 
H          H       0.46261   0.67497   0.43430 
H          H       0.32503   0.78764   0.43430 
H          H       0.21236   0.53739   0.43430 
H          H       0.43003   0.27338   0.41773 
H          H       0.72662   0.15665   0.41773 
H          H       0.84335   0.56997   0.41773 
H          H       0.56997   0.72662   0.41773 
H          H       0.27338   0.84335   0.41773 
H          H       0.15665   0.43003   0.41773 
C          C       0.07247   0.94388   0.97863 
C          C       0.05612   0.12859   0.97863 
C          C       0.87141   0.92753   0.97863 
C          C       0.92753   0.05612   0.97863 
C          C       0.94388   0.87141   0.97863 
C          C       0.12859   0.07247   0.97863 
C          C       0.07008   0.90770   0.57544 
C          C       0.09230   0.16238   0.57544 
C          C       0.83762   0.92992   0.57544 
C          C       0.92992   0.09230   0.57544 
C          C       0.90770   0.83762   0.57544 
C          C       0.16238   0.07008   0.57544 
C          C       0.10424   0.88008   0.57353 
C          C       0.11992   0.22416   0.57353 
C          C       0.77584   0.89576   0.57353 
C          C       0.89576   0.11992   0.57353 
C          C       0.88008   0.77584   0.57353 
C          C       0.22416   0.10424   0.57353 
C          C       0.14225   0.88902   0.97483 
C          C       0.11098   0.25323   0.97483 
C          C       0.74677   0.85775   0.97483 
C          C       0.85775   0.11098   0.97483 
C          C       0.88902   0.74677   0.97483 
C          C       0.25323   0.14225   0.97483 
C          C       0.14499   0.92562   0.87832 
C          C       0.07438   0.21937   0.87832 
C          C       0.78063   0.85501   0.87832 
C          C       0.85501   0.07438   0.87832 
C          C       0.92562   0.78063   0.87832 
C          C       0.21937   0.14499   0.87832 
C          C       0.11002   0.95235   0.87998 
C          C       0.04765   0.15767   0.87998 
C          C       0.84233   0.88998   0.87998 
C          C       0.88998   0.04765   0.87998 
C          C       0.95235   0.84233   0.87998 
C          C       0.15767   0.11002   0.87998 
C          C       0.17891   0.86050   0.97029 
C          C       0.13950   0.31841   0.97029 
C          C       0.68159   0.82109   0.97029 
C          C       0.82109   0.13950   0.97029 
C          C       0.86050   0.68159   0.97029 
C          C       0.31841   0.17891   0.97029 
N          N       0.17893   0.82812   0.56047 
N          N       0.17188   0.35081   0.56047 
N          N       0.64919   0.82107   0.56047 
N          N       0.82107   0.17188   0.56047 
N          N       0.82812   0.64919   0.56047 
N          N       0.35081   0.17893   0.56047 
C          C       0.06268   0.03533   0.98006 
C          C       0.96467   0.02735   0.98006 
C          C       0.97265   0.93732   0.98006 
C          C       0.93732   0.96467   0.98006 
C          C       0.03533   0.97265   0.98006 
C          C       0.02735   0.06268   0.98006 
H          H       0.04169   0.90097   0.65216 
H          H       0.09903   0.14072   0.65216 
H          H       0.85928   0.95831   0.65216 
H          H       0.95831   0.09903   0.65216 
H          H       0.90097   0.85928   0.65216 
H          H       0.14072   0.04169   0.65216 
H          H       0.10087   0.85185   0.64917 
H          H       0.14815   0.24902   0.64917 
H          H       0.75098   0.89913   0.64917 
H          H       0.89913   0.14815   0.64917 
H          H       0.85185   0.75098   0.64917 
H          H       0.24902   0.10087   0.64917 
H          H       0.17403   0.93336   0.80133 
H          H       0.06664   0.24067   0.80133 
H          H       0.75933   0.82597   0.80133 
H          H       0.82597   0.06664   0.80133 
H          H       0.93336   0.75933   0.80133 
H          H       0.24067   0.17403   0.80133 
H          H       0.11188   0.97950   0.80434 
H          H       0.02050   0.13238   0.80434 
H          H       0.86762   0.88812   0.80434 
H          H       0.88812   0.02050   0.80434 
H          H       0.97950   0.86762   0.80434 
H          H       0.13238   0.11188   0.80434 
H          H       0.20471   0.86628   0.88895 
H          H       0.13372   0.33843   0.88895 
H          H       0.66157   0.79529   0.88895 
H          H       0.79529   0.13372   0.88895 
H          H       0.86628   0.66157   0.88895 
H          H       0.33843   0.20471   0.88895 
C          C       0.41442   0.21233   0.56779 
C          C       0.78767   0.20209   0.56779 
C          C       0.79791   0.58558   0.56779 
C          C       0.58558   0.78767   0.56779 
C          C       0.21233   0.79791   0.56779 
C          C       0.20209   0.41442   0.56779 
C          C       0.44227   0.19755   0.65940 
C          C       0.80245   0.24472   0.65940 
C          C       0.75528   0.55773   0.65940 
C          C       0.55773   0.80245   0.65940 
C          C       0.19755   0.75528   0.65940 
C          C       0.24472   0.44227   0.65940 
C          C       0.50403   0.22752   0.66892 
C          C       0.77248   0.27651   0.66892 
C          C       0.72349   0.49597   0.66892 
C          C       0.49597   0.77248   0.66892 
C          C       0.22752   0.72349   0.66892 
C          C       0.27651   0.50403   0.66892 
C          C       0.53898   0.27367   0.58789 
C          C       0.72633   0.26531   0.58789 
C          C       0.73469   0.46102   0.58789 
C          C       0.46102   0.72633   0.58789 
C          C       0.27367   0.73469   0.58789 
C          C       0.26531   0.53898   0.58789 
C          C       0.51121   0.28967   0.99802 
C          C       0.71033   0.22154   0.99802 
C          C       0.77846   0.48879   0.99802 
C          C       0.48879   0.71033   0.99802 
C          C       0.28967   0.77846   0.99802 
C          C       0.22154   0.51121   0.99802 
C          C       0.44950   0.25935   0.98775 
C          C       0.74065   0.19015   0.98775 
C          C       0.80985   0.55050   0.98775 
C          C       0.55050   0.74065   0.98775 
C          C       0.25935   0.80985   0.98775 
C          C       0.19015   0.44950   0.98775 
C          C       0.60435   0.30427   0.59485 
C          C       0.69573   0.30008   0.59485 
C          C       0.69992   0.39565   0.59485 
C          C       0.39565   0.69573   0.59485 
C          C       0.30427   0.69992   0.59485 
C          C       0.30008   0.60435   0.59485 
C          C       0.63777   0.36640   0.59520 
C          C       0.63360   0.27137   0.59520 
C          C       0.72863   0.36223   0.59520 
C          C       0.36223   0.63360   0.59520 
C          C       0.36640   0.72863   0.59520 
C          C       0.27137   0.63777   0.59520 
H          H       0.61538   0.39201   0.59332 
H          H       0.60799   0.22337   0.59332 
H          H       0.77663   0.38462   0.59332 
H          H       0.38462   0.60799   0.59332 
H          H       0.39201   0.77663   0.59332 
H          H       0.22337   0.61538   0.59332 
H          H       0.41592   0.16211   0.72278 
H          H       0.83789   0.25381   0.72278 
H          H       0.74619   0.58408   0.72278 
H          H       0.58408   0.83789   0.72278 
H          H       0.16211   0.74619   0.72278 
H          H       0.25381   0.41592   0.72278 
H          H       0.52455   0.21492   0.73982 
H          H       0.78508   0.30963   0.73982 
H          H       0.69037   0.47545   0.73982 
H          H       0.47545   0.78508   0.73982 
H          H       0.21492   0.69037   0.73982 
H          H       0.30963   0.52455   0.73982 
H          H       0.53739   0.32503   0.93430 
H          H       0.67497   0.21236   0.93430 
H          H       0.78764   0.46261   0.93430 
H          H       0.46261   0.67497   0.93430 
H          H       0.32503   0.78764   0.93430 
H          H       0.21236   0.53739   0.93430 
H          H       0.43003   0.27338   0.91773 
H          H       0.72662   0.15665   0.91773 
H          H       0.84335   0.56997   0.91773 
H          H       0.56997   0.72662   0.91773 
H          H       0.27338   0.84335   0.91773 
H          H       0.15665   0.43003   0.91773 
