data_crystal
 
_cell_length_a    17.56320
_cell_length_b    17.56320
_cell_length_c    6.90880
_cell_angle_alpha 90.00000
_cell_angle_beta  90.00000
_cell_angle_gamma 120.00000
 
_symmetry_space_group_name_Hall 'P 1'
_symmetry_space_group_name_H-M  'P 1'
 
loop_
_symmetry_equiv_pos_as_xyz
 'x,y,z' 
 
loop_
_atom_site_label
_atom_site_type_symbol
_atom_site_fract_x
_atom_site_fract_y
_atom_site_fract_z
_atom_site_charge
N          N       0.68370   0.41590   0.00000   0.0000000000
N          N       0.58410   0.26780   0.00000   0.0000000000
N          N       0.73220   0.31630   0.00000   0.0000000000
C          C       0.60060   0.34780   0.00000   0.0000000000
C          C       0.65220   0.25280   0.00000   0.0000000000
C          C       0.74720   0.39940   0.00000   0.0000000000
C          C       0.26700   0.58020   0.00000   0.0000000000
C          C       0.41980   0.68680   0.00000   0.0000000000
C          C       0.31320   0.73300   0.00000   0.0000000000
C          C       0.35320   0.59840   0.00000   0.0000000000
C          C       0.40160   0.75480   0.00000   0.0000000000
C          C       0.24520   0.64680   0.00000   0.0000000000
C          C       0.15210   0.62630   0.00000   0.0000000000
C          C       0.37370   0.52580   0.00000   0.0000000000
C          C       0.47420   0.84790   0.00000   0.0000000000
C          C       0.97400   0.57910   0.00000   0.0000000000
C          C       0.42090   0.39490   0.00000   0.0000000000
C          C       0.60510   0.02600   0.00000   0.0000000000
C          C       0.87980   0.55080   0.00000   0.0000000000
C          C       0.44920   0.32900   0.00000   0.0000000000
C          C       0.67100   0.12020   0.00000   0.0000000000
C          C       0.08630   0.53820   0.00000   0.0000000000
C          C       0.46180   0.54810   0.00000   0.0000000000
C          C       0.45190   0.91370   0.00000   0.0000000000
C          C       0.00100   0.51540   0.00000   0.0000000000
C          C       0.48460   0.48560   0.00000   0.0000000000
C          C       0.51440   0.99900   0.00000   0.0000000000
C          C       0.83440   0.46500   0.00000   0.0000000000
C          C       0.53500   0.36940   0.00000   0.0000000000
C          C       0.63060   0.16560   0.00000   0.0000000000
C          C       0.03750   0.66770   0.00000   0.0000000000
C          C       0.33230   0.36980   0.00000   0.0000000000
C          C       0.63020   0.96250   0.00000   0.0000000000
C          C       0.12620   0.69170   0.00000   0.0000000000
C          C       0.30830   0.43450   0.00000   0.0000000000
C          C       0.56550   0.87380   0.00000   0.0000000000
H          H       0.17150   0.76140   0.00000   0.0000000000
H          H       0.23860   0.41010   0.00000   0.0000000000
H          H       0.58990   0.82850   0.00000   0.0000000000
H          H       0.09510   0.48200   0.00000   0.0000000000
H          H       0.51800   0.61310   0.00000   0.0000000000
H          H       0.38690   0.90490   0.00000   0.0000000000
H          H       0.95620   0.44480   0.00000   0.0000000000
H          H       0.55520   0.51140   0.00000   0.0000000000
H          H       0.48860   0.04380   0.00000   0.0000000000
H          H       0.01870   0.71790   0.00000   0.0000000000
H          H       0.28210   0.30080   0.00000   0.0000000000
H          H       0.69920   0.98130   0.00000   0.0000000000
H          H       0.21830   0.51350   0.00000   0.0000000000
H          H       0.48650   0.70480   0.00000   0.0000000000
H          H       0.29520   0.78170   0.00000   0.0000000000
N          N       0.68370   0.41590   0.50000   0.0000000000
N          N       0.58410   0.26780   0.50000   0.0000000000
N          N       0.73220   0.31630   0.50000   0.0000000000
C          C       0.60060   0.34780   0.50000   0.0000000000
C          C       0.65220   0.25280   0.50000   0.0000000000
C          C       0.74720   0.39940   0.50000   0.0000000000
C          C       0.26700   0.58020   0.50000   0.0000000000
C          C       0.41980   0.68680   0.50000   0.0000000000
C          C       0.31320   0.73300   0.50000   0.0000000000
C          C       0.35320   0.59840   0.50000   0.0000000000
C          C       0.40160   0.75480   0.50000   0.0000000000
C          C       0.24520   0.64680   0.50000   0.0000000000
C          C       0.15210   0.62630   0.50000   0.0000000000
C          C       0.37370   0.52580   0.50000   0.0000000000
C          C       0.47420   0.84790   0.50000   0.0000000000
C          C       0.97400   0.57910   0.50000   0.0000000000
C          C       0.42090   0.39490   0.50000   0.0000000000
C          C       0.60510   0.02600   0.50000   0.0000000000
C          C       0.87980   0.55080   0.50000   0.0000000000
C          C       0.44920   0.32900   0.50000   0.0000000000
C          C       0.67100   0.12020   0.50000   0.0000000000
C          C       0.08630   0.53820   0.50000   0.0000000000
C          C       0.46180   0.54810   0.50000   0.0000000000
C          C       0.45190   0.91370   0.50000   0.0000000000
C          C       0.00100   0.51540   0.50000   0.0000000000
C          C       0.48460   0.48560   0.50000   0.0000000000
C          C       0.51440   0.99900   0.50000   0.0000000000
C          C       0.83440   0.46500   0.50000   0.0000000000
C          C       0.53500   0.36940   0.50000   0.0000000000
C          C       0.63060   0.16560   0.50000   0.0000000000
C          C       0.03750   0.66770   0.50000   0.0000000000
C          C       0.33230   0.36980   0.50000   0.0000000000
C          C       0.63020   0.96250   0.50000   0.0000000000
C          C       0.12620   0.69170   0.50000   0.0000000000
C          C       0.30830   0.43450   0.50000   0.0000000000
C          C       0.56550   0.87380   0.50000   0.0000000000
H          H       0.17150   0.76140   0.50000   0.0000000000
H          H       0.23860   0.41010   0.50000   0.0000000000
H          H       0.58990   0.82850   0.50000   0.0000000000
H          H       0.09510   0.48200   0.50000   0.0000000000
H          H       0.51800   0.61310   0.50000   0.0000000000
H          H       0.38690   0.90490   0.50000   0.0000000000
H          H       0.95620   0.44480   0.50000   0.0000000000
H          H       0.55520   0.51140   0.50000   0.0000000000
H          H       0.48860   0.04380   0.50000   0.0000000000
H          H       0.01870   0.71790   0.50000   0.0000000000
H          H       0.28210   0.30080   0.50000   0.0000000000
H          H       0.69920   0.98130   0.50000   0.0000000000
H          H       0.21830   0.51350   0.50000   0.0000000000
H          H       0.48650   0.70480   0.50000   0.0000000000
H          H       0.29520   0.78170   0.50000   0.0000000000
