data_crystal
 
_cell_length_a    21.69340
_cell_length_b    21.69340
_cell_length_c    7.04640
_cell_angle_alpha 90.00000
_cell_angle_beta  90.00000
_cell_angle_gamma 120.00000
 
_symmetry_space_group_name_Hall 'P 1'
_symmetry_space_group_name_H-M  'P 1'
 
loop_
_symmetry_equiv_pos_as_xyz
 'x,y,z' 
 
loop_
_atom_site_label
_atom_site_type_symbol
_atom_site_fract_x
_atom_site_fract_y
_atom_site_fract_z
_atom_site_charge
C          C       0.26600   0.63460   0.00704   0.0000000000
C          C       0.36540   0.63140   0.00704   0.0000000000
C          C       0.36860   0.73400   0.00704   0.0000000000
C          C       0.73400   0.36540   0.00704   0.0000000000
C          C       0.63460   0.36860   0.00704   0.0000000000
C          C       0.63140   0.26600   0.00704   0.0000000000
C          C       0.73400   0.36540   0.49295   0.0000000000
C          C       0.63460   0.36860   0.49295   0.0000000000
C          C       0.63140   0.26600   0.49295   0.0000000000
C          C       0.26600   0.63460   0.49295   0.0000000000
C          C       0.36540   0.63140   0.49295   0.0000000000
C          C       0.36860   0.73400   0.49295   0.0000000000
C          C       0.39860   0.58380   0.01112   0.0000000000
C          C       0.41620   0.81480   0.01112   0.0000000000
C          C       0.18520   0.60140   0.01112   0.0000000000
C          C       0.60140   0.41620   0.01112   0.0000000000
C          C       0.58380   0.18520   0.01112   0.0000000000
C          C       0.81480   0.39860   0.01112   0.0000000000
C          C       0.60140   0.41620   0.48887   0.0000000000
C          C       0.58380   0.18520   0.48887   0.0000000000
C          C       0.81480   0.39860   0.48887   0.0000000000
C          C       0.39860   0.58380   0.48887   0.0000000000
C          C       0.41620   0.81480   0.48887   0.0000000000
C          C       0.18520   0.60140   0.48887   0.0000000000
C          C       0.45640   0.60140   0.00573   0.0000000000
C          C       0.39860   0.85500   0.00573   0.0000000000
C          C       0.14500   0.54360   0.00573   0.0000000000
C          C       0.54360   0.39860   0.00573   0.0000000000
C          C       0.60140   0.14500   0.00573   0.0000000000
C          C       0.85500   0.45640   0.00573   0.0000000000
C          C       0.54360   0.39860   0.49428   0.0000000000
C          C       0.60140   0.14500   0.49428   0.0000000000
C          C       0.85500   0.45640   0.49428   0.0000000000
C          C       0.45640   0.60140   0.49428   0.0000000000
C          C       0.39860   0.85500   0.49428   0.0000000000
C          C       0.14500   0.54360   0.49428   0.0000000000
C          C       0.48070   0.55290   0.49890   0.0000000000
C          C       0.44710   0.92780   0.49890   0.0000000000
C          C       0.07220   0.51930   0.49890   0.0000000000
C          C       0.51930   0.44710   0.49890   0.0000000000
C          C       0.55290   0.07220   0.49890   0.0000000000
C          C       0.92780   0.48070   0.49890   0.0000000000
C          C       0.51930   0.44710   0.00109   0.0000000000
C          C       0.55290   0.07220   0.00109   0.0000000000
C          C       0.92780   0.48070   0.00109   0.0000000000
C          C       0.48070   0.55290   0.00109   0.0000000000
C          C       0.44710   0.92780   0.00109   0.0000000000
C          C       0.07220   0.51930   0.00109   0.0000000000
C          C       0.55230   0.57020   0.00100   0.0000000000
C          C       0.42980   0.98210   0.00100   0.0000000000
C          C       0.01790   0.44770   0.00100   0.0000000000
C          C       0.44770   0.42980   0.00100   0.0000000000
C          C       0.57020   0.01790   0.00100   0.0000000000
C          C       0.98210   0.55230   0.00100   0.0000000000
C          C       0.44770   0.42980   0.49900   0.0000000000
C          C       0.57020   0.01790   0.49900   0.0000000000
C          C       0.98210   0.55230   0.49900   0.0000000000
C          C       0.55230   0.57020   0.49900   0.0000000000
C          C       0.42980   0.98210   0.49900   0.0000000000
C          C       0.01790   0.44770   0.49900   0.0000000000
C          C       0.42930   0.48100   0.49658   0.0000000000
C          C       0.51900   0.94830   0.49658   0.0000000000
C          C       0.05170   0.57070   0.49658   0.0000000000
C          C       0.57070   0.51900   0.49658   0.0000000000
C          C       0.48100   0.05170   0.49658   0.0000000000
C          C       0.94830   0.42930   0.49658   0.0000000000
C          C       0.57070   0.51900   0.00342   0.0000000000
C          C       0.48100   0.05170   0.00342   0.0000000000
C          C       0.94830   0.42930   0.00342   0.0000000000
C          C       0.42930   0.48100   0.00342   0.0000000000
C          C       0.51900   0.94830   0.00342   0.0000000000
C          C       0.05170   0.57070   0.00342   0.0000000000
N          N       0.30000   0.70450   0.49031   0.0000000000
N          N       0.29550   0.59550   0.49031   0.0000000000
N          N       0.40450   0.70000   0.49031   0.0000000000
N          N       0.70000   0.29550   0.49031   0.0000000000
N          N       0.70450   0.40450   0.49031   0.0000000000
N          N       0.59550   0.30000   0.49031   0.0000000000
N          N       0.70000   0.29550   0.00969   0.0000000000
N          N       0.70450   0.40450   0.00969   0.0000000000
N          N       0.59550   0.30000   0.00969   0.0000000000
N          N       0.30000   0.70450   0.00969   0.0000000000
N          N       0.29550   0.59550   0.00969   0.0000000000
N          N       0.40450   0.70000   0.00969   0.0000000000
H          H       0.38150   0.46740   0.49795   0.0000000000
H          H       0.53260   0.91410   0.49795   0.0000000000
H          H       0.08590   0.61850   0.49795   0.0000000000
H          H       0.61850   0.53260   0.49795   0.0000000000
H          H       0.46740   0.08590   0.49795   0.0000000000
H          H       0.91410   0.38150   0.49795   0.0000000000
H          H       0.61850   0.53260   0.00205   0.0000000000
H          H       0.46740   0.08590   0.00205   0.0000000000
H          H       0.91410   0.38150   0.00205   0.0000000000
H          H       0.38150   0.46740   0.00205   0.0000000000
H          H       0.53260   0.91410   0.00205   0.0000000000
H          H       0.08590   0.61850   0.00205   0.0000000000
H          H       0.58810   0.61750   0.01169   0.0000000000
H          H       0.38250   0.97060   0.01169   0.0000000000
H          H       0.02940   0.41190   0.01169   0.0000000000
H          H       0.41190   0.38250   0.01169   0.0000000000
H          H       0.61750   0.02940   0.01169   0.0000000000
H          H       0.97060   0.58810   0.01169   0.0000000000
H          H       0.41190   0.38250   0.48831   0.0000000000
H          H       0.61750   0.02940   0.48831   0.0000000000
H          H       0.97060   0.58810   0.48831   0.0000000000
H          H       0.58810   0.61750   0.48831   0.0000000000
H          H       0.38250   0.97060   0.48831   0.0000000000
H          H       0.02940   0.41190   0.48831   0.0000000000
H          H       0.48850   0.64990   0.01034   0.0000000000
H          H       0.35010   0.83860   0.01034   0.0000000000
H          H       0.16140   0.51150   0.01034   0.0000000000
H          H       0.51150   0.35010   0.01034   0.0000000000
H          H       0.64990   0.16140   0.01034   0.0000000000
H          H       0.83860   0.48850   0.01034   0.0000000000
H          H       0.51150   0.35010   0.48966   0.0000000000
H          H       0.64990   0.16140   0.48966   0.0000000000
H          H       0.83860   0.48850   0.48966   0.0000000000
H          H       0.48850   0.64990   0.48966   0.0000000000
H          H       0.35010   0.83860   0.48966   0.0000000000
H          H       0.16140   0.51150   0.48966   0.0000000000
H          H       0.36720   0.53510   0.00143   0.0000000000
H          H       0.46490   0.83210   0.00143   0.0000000000
H          H       0.16790   0.63280   0.00143   0.0000000000
H          H       0.63280   0.46490   0.00143   0.0000000000
H          H       0.53510   0.16790   0.00143   0.0000000000
H          H       0.83210   0.36720   0.00143   0.0000000000
H          H       0.63280   0.46490   0.49857   0.0000000000
H          H       0.53510   0.16790   0.49857   0.0000000000
H          H       0.83210   0.36720   0.49857   0.0000000000
H          H       0.36720   0.53510   0.49857   0.0000000000
H          H       0.46490   0.83210   0.49857   0.0000000000
H          H       0.16790   0.63280   0.49857   0.0000000000
