data_crystal
 
_cell_length_a    36.40000
_cell_length_b    38.31000
_cell_length_c    7.02000
_cell_angle_alpha 90.00000
_cell_angle_beta  90.00000
_cell_angle_gamma 90.00000
 
_symmetry_space_group_name_Hall 'P 1'
_symmetry_space_group_name_H-M  'P 1'
 
loop_
_symmetry_equiv_pos_as_xyz
 'x,y,z' 
 
loop_
_atom_site_label
_atom_site_type_symbol
_atom_site_fract_x
_atom_site_fract_y
_atom_site_fract_z
_atom_site_charge
C          C       0.35910   0.40363   0.00000   0.0000000000
C          C       0.64090   0.59637   0.00000   0.0000000000
C          C       0.64090   0.40363   0.00000   0.0000000000
C          C       0.35910   0.59637   0.00000   0.0000000000
C          C       0.85910   0.90363   0.00000   0.0000000000
C          C       0.14090   0.09637   0.00000   0.0000000000
C          C       0.14090   0.90363   0.00000   0.0000000000
C          C       0.85910   0.09637   0.00000   0.0000000000
C          C       0.33827   0.37309   0.00000   0.0000000000
C          C       0.66173   0.62691   0.00000   0.0000000000
C          C       0.66173   0.37309   0.00000   0.0000000000
C          C       0.33827   0.62691   0.00000   0.0000000000
C          C       0.83827   0.87309   0.00000   0.0000000000
C          C       0.16173   0.12691   0.00000   0.0000000000
C          C       0.16173   0.87309   0.00000   0.0000000000
C          C       0.83827   0.12691   0.00000   0.0000000000
N          N       0.69611   0.56277   0.00000   0.0000000000
N          N       0.30389   0.43723   0.00000   0.0000000000
N          N       0.30389   0.56277   0.00000   0.0000000000
N          N       0.69611   0.43723   0.00000   0.0000000000
N          N       0.19611   0.06277   0.00000   0.0000000000
N          N       0.80389   0.93723   0.00000   0.0000000000
N          N       0.80389   0.06277   0.00000   0.0000000000
N          N       0.19611   0.93723   0.00000   0.0000000000
C          C       0.71691   0.59226   0.00000   0.0000000000
C          C       0.28309   0.40774   0.00000   0.0000000000
C          C       0.28309   0.59226   0.00000   0.0000000000
C          C       0.71691   0.40774   0.00000   0.0000000000
C          C       0.21691   0.09226   0.00000   0.0000000000
C          C       0.78309   0.90774   0.00000   0.0000000000
C          C       0.78309   0.09226   0.00000   0.0000000000
C          C       0.21691   0.90774   0.00000   0.0000000000
C          C       0.34130   0.43608   0.00000   0.0000000000
C          C       0.65870   0.56392   0.00000   0.0000000000
C          C       0.65870   0.43608   0.00000   0.0000000000
C          C       0.34130   0.56392   0.00000   0.0000000000
C          C       0.84130   0.93608   0.00000   0.0000000000
C          C       0.15870   0.06392   0.00000   0.0000000000
C          C       0.15870   0.93608   0.00000   0.0000000000
C          C       0.84130   0.06392   0.00000   0.0000000000
C          C       0.29989   0.37500   0.00000   0.0000000000
C          C       0.70011   0.62500   0.00000   0.0000000000
C          C       0.70011   0.37500   0.00000   0.0000000000
C          C       0.29989   0.62500   0.00000   0.0000000000
C          C       0.79989   0.87500   0.00000   0.0000000000
C          C       0.20011   0.12500   0.00000   0.0000000000
C          C       0.20011   0.87500   0.00000   0.0000000000
C          C       0.79989   0.12500   0.00000   0.0000000000
C          C       0.23165   0.28200   0.00000   0.0000000000
C          C       0.76835   0.71800   0.00000   0.0000000000
C          C       0.76835   0.28200   0.00000   0.0000000000
C          C       0.23165   0.71800   0.00000   0.0000000000
C          C       0.73165   0.78200   0.00000   0.0000000000
C          C       0.26835   0.21800   0.00000   0.0000000000
C          C       0.26835   0.78200   0.00000   0.0000000000
C          C       0.73165   0.21800   0.00000   0.0000000000
C          C       0.27024   0.28125   0.00000   0.0000000000
C          C       0.72976   0.71875   0.00000   0.0000000000
C          C       0.72976   0.28125   0.00000   0.0000000000
C          C       0.27024   0.71875   0.00000   0.0000000000
C          C       0.77024   0.78125   0.00000   0.0000000000
C          C       0.22976   0.21875   0.00000   0.0000000000
C          C       0.22976   0.78125   0.00000   0.0000000000
C          C       0.77024   0.21875   0.00000   0.0000000000
N          N       0.29157   0.31263   0.00000   0.0000000000
N          N       0.70843   0.68737   0.00000   0.0000000000
N          N       0.70843   0.31263   0.00000   0.0000000000
N          N       0.29157   0.68737   0.00000   0.0000000000
N          N       0.79157   0.81263   0.00000   0.0000000000
N          N       0.20843   0.18737   0.00000   0.0000000000
N          N       0.20843   0.81263   0.00000   0.0000000000
N          N       0.79157   0.18737   0.00000   0.0000000000
C          C       0.77705   0.84352   0.00000   0.0000000000
C          C       0.22295   0.15648   0.00000   0.0000000000
C          C       0.22295   0.84352   0.00000   0.0000000000
C          C       0.77705   0.15648   0.00000   0.0000000000
C          C       0.27705   0.34352   0.00000   0.0000000000
C          C       0.72295   0.65648   0.00000   0.0000000000
C          C       0.72295   0.34352   0.00000   0.0000000000
C          C       0.27705   0.65648   0.00000   0.0000000000
C          C       0.78839   0.74909   0.00000   0.0000000000
C          C       0.21161   0.25091   0.00000   0.0000000000
C          C       0.21161   0.74909   0.00000   0.0000000000
C          C       0.78839   0.25091   0.00000   0.0000000000
C          C       0.28839   0.24909   0.00000   0.0000000000
C          C       0.71161   0.75091   0.00000   0.0000000000
C          C       0.71161   0.24909   0.00000   0.0000000000
C          C       0.28839   0.75091   0.00000   0.0000000000
C          C       0.13754   0.96889   0.00000   0.0000000000
C          C       0.86246   0.03111   0.00000   0.0000000000
C          C       0.86246   0.96889   0.00000   0.0000000000
C          C       0.13754   0.03111   0.00000   0.0000000000
C          C       0.63754   0.46889   0.00000   0.0000000000
C          C       0.36246   0.53111   0.00000   0.0000000000
C          C       0.36246   0.46889   0.00000   0.0000000000
C          C       0.63754   0.53111   0.00000   0.0000000000
C          C       0.09908   0.96856   0.00000   0.0000000000
C          C       0.90092   0.03144   0.00000   0.0000000000
C          C       0.90092   0.96856   0.00000   0.0000000000
C          C       0.09908   0.03144   0.00000   0.0000000000
C          C       0.59908   0.46856   0.00000   0.0000000000
C          C       0.40092   0.53144   0.00000   0.0000000000
C          C       0.40092   0.46856   0.00000   0.0000000000
C          C       0.59908   0.53144   0.00000   0.0000000000
C          C       0.01918   0.96848   0.00000   0.0000000000
C          C       0.98082   0.03152   0.00000   0.0000000000
C          C       0.98082   0.96848   0.00000   0.0000000000
C          C       0.01918   0.03152   0.00000   0.0000000000
C          C       0.51918   0.46848   0.00000   0.0000000000
C          C       0.48082   0.53152   0.00000   0.0000000000
C          C       0.48082   0.46848   0.00000   0.0000000000
C          C       0.51918   0.53152   0.00000   0.0000000000
N          N       0.15559   0.00000   0.00000   0.0000000000
N          N       0.84441   0.00000   0.00000   0.0000000000
N          N       0.65559   0.50000   0.00000   0.0000000000
N          N       0.34441   0.50000   0.00000   0.0000000000
C          C       0.07947   0.00000   0.00000   0.0000000000
C          C       0.92053   0.00000   0.00000   0.0000000000
C          C       0.57947   0.50000   0.00000   0.0000000000
C          C       0.42053   0.50000   0.00000   0.0000000000
C          C       0.03879   0.00000   0.00000   0.0000000000
C          C       0.96121   0.00000   0.00000   0.0000000000
C          C       0.53879   0.50000   0.00000   0.0000000000
C          C       0.46121   0.50000   0.00000   0.0000000000
H          H       0.58516   0.44509   0.00000   0.0000000000
H          H       0.58516   0.55491   0.00000   0.0000000000
H          H       0.61258   0.59764   0.00000   0.0000000000
H          H       0.64885   0.65091   0.00000   0.0000000000
H          H       0.74520   0.59042   0.00000   0.0000000000
H          H       0.75118   0.65401   0.00000   0.0000000000
H          H       0.78195   0.69436   0.00000   0.0000000000
H          H       0.81673   0.74832   0.00000   0.0000000000
H          H       0.71805   0.80564   0.00000   0.0000000000
H          H       0.68327   0.75168   0.00000   0.0000000000
H          H       0.74882   0.84599   0.00000   0.0000000000
H          H       0.75480   0.90958   0.00000   0.0000000000
H          H       0.85115   0.84909   0.00000   0.0000000000
H          H       0.88742   0.90236   0.00000   0.0000000000
H          H       0.61258   0.40236   0.00000   0.0000000000
H          H       0.64885   0.34909   0.00000   0.0000000000
H          H       0.74520   0.40958   0.00000   0.0000000000
H          H       0.75118   0.34599   0.00000   0.0000000000
H          H       0.78195   0.30564   0.00000   0.0000000000
H          H       0.68327   0.24832   0.00000   0.0000000000
H          H       0.81673   0.25168   0.00000   0.0000000000
H          H       0.71805   0.19436   0.00000   0.0000000000
H          H       0.75480   0.09042   0.00000   0.0000000000
H          H       0.85115   0.15091   0.00000   0.0000000000
H          H       0.88742   0.09764   0.00000   0.0000000000
H          H       0.91484   0.05491   0.00000   0.0000000000
H          H       0.08516   0.05491   0.00000   0.0000000000
H          H       0.11258   0.09764   0.00000   0.0000000000
H          H       0.24520   0.09042   0.00000   0.0000000000
H          H       0.14885   0.15091   0.00000   0.0000000000
H          H       0.25118   0.15401   0.00000   0.0000000000
H          H       0.28195   0.19436   0.00000   0.0000000000
H          H       0.31673   0.24832   0.00000   0.0000000000
H          H       0.21805   0.30564   0.00000   0.0000000000
H          H       0.18327   0.25168   0.00000   0.0000000000
H          H       0.24882   0.34599   0.00000   0.0000000000
H          H       0.35115   0.34909   0.00000   0.0000000000
H          H       0.25480   0.40958   0.00000   0.0000000000
H          H       0.38742   0.40236   0.00000   0.0000000000
H          H       0.41484   0.44509   0.00000   0.0000000000
H          H       0.41484   0.55491   0.00000   0.0000000000
H          H       0.46677   0.44508   0.00000   0.0000000000
H          H       0.53323   0.55492   0.00000   0.0000000000
H          H       0.46677   0.55492   0.00000   0.0000000000
H          H       0.53323   0.44508   0.00000   0.0000000000
H          H       0.38742   0.59764   0.00000   0.0000000000
H          H       0.35115   0.65091   0.00000   0.0000000000
H          H       0.25480   0.59042   0.00000   0.0000000000
H          H       0.21805   0.69436   0.00000   0.0000000000
H          H       0.18327   0.74832   0.00000   0.0000000000
H          H       0.24882   0.65401   0.00000   0.0000000000
H          H       0.31673   0.75168   0.00000   0.0000000000
H          H       0.28195   0.80564   0.00000   0.0000000000
H          H       0.25118   0.84599   0.00000   0.0000000000
H          H       0.24520   0.90958   0.00000   0.0000000000
H          H       0.14885   0.84909   0.00000   0.0000000000
H          H       0.11258   0.90236   0.00000   0.0000000000
H          H       0.92067   0.94571   0.01691   0.0000000000
H          H       0.07912   0.95008   0.00780   0.0000000000
H          H       0.03875   0.05293  -0.00846   0.0000000000
H          H       0.96314   0.05705  -0.01832   0.0000000000
H          H       0.03500   0.94712   0.01520   0.0000000000
H          H       0.96270   0.94665   0.00978   0.0000000000
H          H       0.74882   0.15401   0.00000   0.0000000000
C          C       0.35910   0.40363   0.50000   0.0000000000
C          C       0.64090   0.59637   0.50000   0.0000000000
C          C       0.64090   0.40363   0.50000   0.0000000000
C          C       0.35910   0.59637   0.50000   0.0000000000
C          C       0.85910   0.90363   0.50000   0.0000000000
C          C       0.14090   0.09637   0.50000   0.0000000000
C          C       0.14090   0.90363   0.50000   0.0000000000
C          C       0.85910   0.09637   0.50000   0.0000000000
C          C       0.33827   0.37309   0.50000   0.0000000000
C          C       0.66173   0.62691   0.50000   0.0000000000
C          C       0.66173   0.37309   0.50000   0.0000000000
C          C       0.33827   0.62691   0.50000   0.0000000000
C          C       0.83827   0.87309   0.50000   0.0000000000
C          C       0.16173   0.12691   0.50000   0.0000000000
C          C       0.16173   0.87309   0.50000   0.0000000000
C          C       0.83827   0.12691   0.50000   0.0000000000
N          N       0.69611   0.56277   0.50000   0.0000000000
N          N       0.30389   0.43723   0.50000   0.0000000000
N          N       0.30389   0.56277   0.50000   0.0000000000
N          N       0.69611   0.43723   0.50000   0.0000000000
N          N       0.19611   0.06277   0.50000   0.0000000000
N          N       0.80389   0.93723   0.50000   0.0000000000
N          N       0.80389   0.06277   0.50000   0.0000000000
N          N       0.19611   0.93723   0.50000   0.0000000000
C          C       0.71691   0.59226   0.50000   0.0000000000
C          C       0.28309   0.40774   0.50000   0.0000000000
C          C       0.28309   0.59226   0.50000   0.0000000000
C          C       0.71691   0.40774   0.50000   0.0000000000
C          C       0.21691   0.09226   0.50000   0.0000000000
C          C       0.78309   0.90774   0.50000   0.0000000000
C          C       0.78309   0.09226   0.50000   0.0000000000
C          C       0.21691   0.90774   0.50000   0.0000000000
C          C       0.34130   0.43608   0.50000   0.0000000000
C          C       0.65870   0.56392   0.50000   0.0000000000
C          C       0.65870   0.43608   0.50000   0.0000000000
C          C       0.34130   0.56392   0.50000   0.0000000000
C          C       0.84130   0.93608   0.50000   0.0000000000
C          C       0.15870   0.06392   0.50000   0.0000000000
C          C       0.15870   0.93608   0.50000   0.0000000000
C          C       0.84130   0.06392   0.50000   0.0000000000
C          C       0.29989   0.37500   0.50000   0.0000000000
C          C       0.70011   0.62500   0.50000   0.0000000000
C          C       0.70011   0.37500   0.50000   0.0000000000
C          C       0.29989   0.62500   0.50000   0.0000000000
C          C       0.79989   0.87500   0.50000   0.0000000000
C          C       0.20011   0.12500   0.50000   0.0000000000
C          C       0.20011   0.87500   0.50000   0.0000000000
C          C       0.79989   0.12500   0.50000   0.0000000000
C          C       0.23165   0.28200   0.50000   0.0000000000
C          C       0.76835   0.71800   0.50000   0.0000000000
C          C       0.76835   0.28200   0.50000   0.0000000000
C          C       0.23165   0.71800   0.50000   0.0000000000
C          C       0.73165   0.78200   0.50000   0.0000000000
C          C       0.26835   0.21800   0.50000   0.0000000000
C          C       0.26835   0.78200   0.50000   0.0000000000
C          C       0.73165   0.21800   0.50000   0.0000000000
C          C       0.27024   0.28125   0.50000   0.0000000000
C          C       0.72976   0.71875   0.50000   0.0000000000
C          C       0.72976   0.28125   0.50000   0.0000000000
C          C       0.27024   0.71875   0.50000   0.0000000000
C          C       0.77024   0.78125   0.50000   0.0000000000
C          C       0.22976   0.21875   0.50000   0.0000000000
C          C       0.22976   0.78125   0.50000   0.0000000000
C          C       0.77024   0.21875   0.50000   0.0000000000
N          N       0.29157   0.31263   0.50000   0.0000000000
N          N       0.70843   0.68737   0.50000   0.0000000000
N          N       0.70843   0.31263   0.50000   0.0000000000
N          N       0.29157   0.68737   0.50000   0.0000000000
N          N       0.79157   0.81263   0.50000   0.0000000000
N          N       0.20843   0.18737   0.50000   0.0000000000
N          N       0.20843   0.81263   0.50000   0.0000000000
N          N       0.79157   0.18737   0.50000   0.0000000000
C          C       0.77705   0.84352   0.50000   0.0000000000
C          C       0.22295   0.15648   0.50000   0.0000000000
C          C       0.22295   0.84352   0.50000   0.0000000000
C          C       0.77705   0.15648   0.50000   0.0000000000
C          C       0.27705   0.34352   0.50000   0.0000000000
C          C       0.72295   0.65648   0.50000   0.0000000000
C          C       0.72295   0.34352   0.50000   0.0000000000
C          C       0.27705   0.65648   0.50000   0.0000000000
C          C       0.78839   0.74909   0.50000   0.0000000000
C          C       0.21161   0.25091   0.50000   0.0000000000
C          C       0.21161   0.74909   0.50000   0.0000000000
C          C       0.78839   0.25091   0.50000   0.0000000000
C          C       0.28839   0.24909   0.50000   0.0000000000
C          C       0.71161   0.75091   0.50000   0.0000000000
C          C       0.71161   0.24909   0.50000   0.0000000000
C          C       0.28839   0.75091   0.50000   0.0000000000
C          C       0.13754   0.96889   0.50000   0.0000000000
C          C       0.86246   0.03111   0.50000   0.0000000000
C          C       0.86246   0.96889   0.50000   0.0000000000
C          C       0.13754   0.03111   0.50000   0.0000000000
C          C       0.63754   0.46889   0.50000   0.0000000000
C          C       0.36246   0.53111   0.50000   0.0000000000
C          C       0.36246   0.46889   0.50000   0.0000000000
C          C       0.63754   0.53111   0.50000   0.0000000000
C          C       0.09908   0.96856   0.50000   0.0000000000
C          C       0.90092   0.03144   0.50000   0.0000000000
C          C       0.90092   0.96856   0.50000   0.0000000000
C          C       0.09908   0.03144   0.50000   0.0000000000
C          C       0.59908   0.46856   0.50000   0.0000000000
C          C       0.40092   0.53144   0.50000   0.0000000000
C          C       0.40092   0.46856   0.50000   0.0000000000
C          C       0.59908   0.53144   0.50000   0.0000000000
C          C       0.01918   0.96848   0.50000   0.0000000000
C          C       0.98082   0.03152   0.50000   0.0000000000
C          C       0.98082   0.96848   0.50000   0.0000000000
C          C       0.01918   0.03152   0.50000   0.0000000000
C          C       0.51918   0.46848   0.50000   0.0000000000
C          C       0.48082   0.53152   0.50000   0.0000000000
C          C       0.48082   0.46848   0.50000   0.0000000000
C          C       0.51918   0.53152   0.50000   0.0000000000
N          N       0.15559   0.00000   0.50000   0.0000000000
N          N       0.84441   0.00000   0.50000   0.0000000000
N          N       0.65559   0.50000   0.50000   0.0000000000
N          N       0.34441   0.50000   0.50000   0.0000000000
C          C       0.07947   0.00000   0.50000   0.0000000000
C          C       0.92053   0.00000   0.50000   0.0000000000
C          C       0.57947   0.50000   0.50000   0.0000000000
C          C       0.42053   0.50000   0.50000   0.0000000000
C          C       0.03879   0.00000   0.50000   0.0000000000
C          C       0.96121   0.00000   0.50000   0.0000000000
C          C       0.53879   0.50000   0.50000   0.0000000000
C          C       0.46121   0.50000   0.50000   0.0000000000
H          H       0.58516   0.44509   0.50000   0.0000000000
H          H       0.58516   0.55491   0.50000   0.0000000000
H          H       0.61258   0.59764   0.50000   0.0000000000
H          H       0.64885   0.65091   0.50000   0.0000000000
H          H       0.74520   0.59042   0.50000   0.0000000000
H          H       0.75118   0.65401   0.50000   0.0000000000
H          H       0.78195   0.69436   0.50000   0.0000000000
H          H       0.81673   0.74832   0.50000   0.0000000000
H          H       0.71805   0.80564   0.50000   0.0000000000
H          H       0.68327   0.75168   0.50000   0.0000000000
H          H       0.74882   0.84599   0.50000   0.0000000000
H          H       0.75480   0.90958   0.50000   0.0000000000
H          H       0.85115   0.84909   0.50000   0.0000000000
H          H       0.88742   0.90236   0.50000   0.0000000000
H          H       0.61258   0.40236   0.50000   0.0000000000
H          H       0.64885   0.34909   0.50000   0.0000000000
H          H       0.74520   0.40958   0.50000   0.0000000000
H          H       0.75118   0.34599   0.50000   0.0000000000
H          H       0.78195   0.30564   0.50000   0.0000000000
H          H       0.68327   0.24832   0.50000   0.0000000000
H          H       0.81673   0.25168   0.50000   0.0000000000
H          H       0.71805   0.19436   0.50000   0.0000000000
H          H       0.75480   0.09042   0.50000   0.0000000000
H          H       0.85115   0.15091   0.50000   0.0000000000
H          H       0.88742   0.09764   0.50000   0.0000000000
H          H       0.91484   0.05491   0.50000   0.0000000000
H          H       0.08516   0.05491   0.50000   0.0000000000
H          H       0.11258   0.09764   0.50000   0.0000000000
H          H       0.24520   0.09042   0.50000   0.0000000000
H          H       0.14885   0.15091   0.50000   0.0000000000
H          H       0.25118   0.15401   0.50000   0.0000000000
H          H       0.28195   0.19436   0.50000   0.0000000000
H          H       0.31673   0.24832   0.50000   0.0000000000
H          H       0.21805   0.30564   0.50000   0.0000000000
H          H       0.18327   0.25168   0.50000   0.0000000000
H          H       0.24882   0.34599   0.50000   0.0000000000
H          H       0.35115   0.34909   0.50000   0.0000000000
H          H       0.25480   0.40958   0.50000   0.0000000000
H          H       0.38742   0.40236   0.50000   0.0000000000
H          H       0.41484   0.44509   0.50000   0.0000000000
H          H       0.41484   0.55491   0.50000   0.0000000000
H          H       0.46677   0.44508   0.50000   0.0000000000
H          H       0.53323   0.55492   0.50000   0.0000000000
H          H       0.46677   0.55492   0.50000   0.0000000000
H          H       0.53323   0.44508   0.50000   0.0000000000
H          H       0.38742   0.59764   0.50000   0.0000000000
H          H       0.35115   0.65091   0.50000   0.0000000000
H          H       0.25480   0.59042   0.50000   0.0000000000
H          H       0.21805   0.69436   0.50000   0.0000000000
H          H       0.18327   0.74832   0.50000   0.0000000000
H          H       0.24882   0.65401   0.50000   0.0000000000
H          H       0.31673   0.75168   0.50000   0.0000000000
H          H       0.28195   0.80564   0.50000   0.0000000000
H          H       0.25118   0.84599   0.50000   0.0000000000
H          H       0.24520   0.90958   0.50000   0.0000000000
H          H       0.14885   0.84909   0.50000   0.0000000000
H          H       0.11258   0.90236   0.50000   0.0000000000
H          H       0.92067   0.94571   0.51692   0.0000000000
H          H       0.07912   0.95008   0.50780   0.0000000000
H          H       0.03875   0.05293   0.49154   0.0000000000
H          H       0.96314   0.05705   0.48168   0.0000000000
H          H       0.03500   0.94712   0.51519   0.0000000000
H          H       0.96270   0.94665   0.50977   0.0000000000
H          H       0.74882   0.15401   0.50000   0.0000000000
