data_crystal
 
_cell_length_a    37.09000
_cell_length_b    37.63000
_cell_length_c    7.04000
_cell_angle_alpha 90.00000
_cell_angle_beta  90.00000
_cell_angle_gamma 90.00000
 
_symmetry_space_group_name_Hall 'P 1'
_symmetry_space_group_name_H-M  'P 1'
 
loop_
_symmetry_equiv_pos_as_xyz
 'x,y,z' 
 
loop_
_atom_site_label
_atom_site_type_symbol
_atom_site_fract_x
_atom_site_fract_y
_atom_site_fract_z
_atom_site_charge
C          C       0.35923   0.40389   0.44418   0.0000000000
C          C       0.33877   0.37328   0.42151   0.0000000000
C          C       0.71764   0.59324   0.59776   0.0000000000
C          C       0.34144   0.43624   0.46064   0.0000000000
C          C       0.30031   0.37480   0.41453   0.0000000000
C          C       0.23229   0.28276   0.37415   0.0000000000
C          C       0.27088   0.28153   0.37450   0.0000000000
N          N       0.29252   0.31261   0.38594   0.0000000000
C          C       0.77750   0.84252   0.61213   0.0000000000
C          C       0.78836   0.74840   0.63497   0.0000000000
C          C       0.13864   0.96886   0.51351   0.0000000000
C          C       0.10015   0.96901   0.51352   0.0000000000
C          C       0.02038   0.96882   0.50925   0.0000000000
C          C       0.85861   0.90333   0.56448   0.0000000000
C          C       0.83828   0.87265   0.58698   0.0000000000
C          C       0.21818   0.09406   0.40464   0.0000000000
C          C       0.84070   0.93565   0.54926   0.0000000000
C          C       0.79982   0.87405   0.59505   0.0000000000
C          C       0.73199   0.78191   0.63424   0.0000000000
C          C       0.77058   0.78070   0.63265   0.0000000000
N          N       0.79218   0.81180   0.62169   0.0000000000
C          C       0.27790   0.34334   0.39709   0.0000000000
C          C       0.28865   0.24924   0.37040   0.0000000000
C          C       0.63754   0.46834   0.48902   0.0000000000
C          C       0.59905   0.46862   0.49009   0.0000000000
C          C       0.51921   0.46865   0.49642   0.0000000000
C          C       0.64095   0.59625   0.58176   0.0000000000
C          C       0.66142   0.62691   0.60191   0.0000000000
C          C       0.28253   0.40690   0.42971   0.0000000000
C          C       0.65873   0.56384   0.56842   0.0000000000
C          C       0.69987   0.62539   0.60951   0.0000000000
C          C       0.76791   0.71759   0.63691   0.0000000000
C          C       0.72932   0.71880   0.63674   0.0000000000
N          N       0.70769   0.68768   0.62966   0.0000000000
C          C       0.22264   0.15775   0.38099   0.0000000000
C          C       0.21183   0.25195   0.37155   0.0000000000
C          C       0.86145   0.03122   0.46896   0.0000000000
C          C       0.89994   0.03107   0.46847   0.0000000000
C          C       0.97971   0.03124   0.47223   0.0000000000
C          C       0.14151   0.09685   0.42307   0.0000000000
C          C       0.16186   0.12758   0.40313   0.0000000000
C          C       0.78192   0.90611   0.58118   0.0000000000
C          C       0.15940   0.06447   0.43500   0.0000000000
C          C       0.20030   0.12618   0.39433   0.0000000000
C          C       0.26819   0.21844   0.36793   0.0000000000
C          C       0.22960   0.21965   0.36936   0.0000000000
N          N       0.20799   0.18851   0.37601   0.0000000000
C          C       0.72230   0.65691   0.62317   0.0000000000
C          C       0.71154   0.75110   0.63634   0.0000000000
C          C       0.36264   0.53173   0.54081   0.0000000000
C          C       0.40113   0.53143   0.54049   0.0000000000
C          C       0.48097   0.53136   0.53542   0.0000000000
C          C       0.64058   0.40337   0.44635   0.0000000000
C          C       0.66092   0.37269   0.42397   0.0000000000
C          C       0.28289   0.59402   0.59569   0.0000000000
C          C       0.65849   0.43570   0.46141   0.0000000000
C          C       0.69938   0.37410   0.41581   0.0000000000
C          C       0.76717   0.28192   0.37678   0.0000000000
C          C       0.72858   0.28073   0.37899   0.0000000000
N          N       0.70700   0.31185   0.38983   0.0000000000
C          C       0.22330   0.84335   0.60247   0.0000000000
C          C       0.21249   0.74926   0.62904   0.0000000000
C          C       0.86163   0.96831   0.52150   0.0000000000
C          C       0.90012   0.96859   0.51946   0.0000000000
C          C       0.97990   0.96873   0.51046   0.0000000000
C          C       0.14196   0.90392   0.55684   0.0000000000
C          C       0.16243   0.87331   0.57895   0.0000000000
C          C       0.78143   0.09325   0.41540   0.0000000000
C          C       0.15975   0.93628   0.54041   0.0000000000
C          C       0.20089   0.87482   0.58541   0.0000000000
C          C       0.26887   0.78274   0.62517   0.0000000000
C          C       0.23028   0.78154   0.62486   0.0000000000
N          N       0.20867   0.81263   0.61360   0.0000000000
C          C       0.72169   0.34257   0.39886   0.0000000000
C          C       0.71078   0.24844   0.37742   0.0000000000
C          C       0.36252   0.46882   0.48826   0.0000000000
C          C       0.40101   0.46895   0.48953   0.0000000000
C          C       0.48086   0.46871   0.49625   0.0000000000
C          C       0.35958   0.59680   0.57868   0.0000000000
C          C       0.33922   0.62754   0.59808   0.0000000000
C          C       0.71727   0.40617   0.42946   0.0000000000
C          C       0.34169   0.56442   0.56655   0.0000000000
C          C       0.30077   0.62614   0.60618   0.0000000000
C          C       0.23292   0.71844   0.63157   0.0000000000
C          C       0.27152   0.71963   0.63019   0.0000000000
N          N       0.29311   0.68848   0.62389   0.0000000000
C          C       0.77679   0.15692   0.38950   0.0000000000
C          C       0.78760   0.25110   0.37481   0.0000000000
C          C       0.13846   0.03178   0.46128   0.0000000000
C          C       0.09997   0.03149   0.46286   0.0000000000
C          C       0.02019   0.03133   0.47103   0.0000000000
C          C       0.85814   0.09624   0.42932   0.0000000000
C          C       0.83767   0.12690   0.40956   0.0000000000
C          C       0.21867   0.90692   0.57026   0.0000000000
C          C       0.84036   0.06383   0.44328   0.0000000000
C          C       0.79921   0.12540   0.40297   0.0000000000
C          C       0.73121   0.21762   0.37560   0.0000000000
C          C       0.76980   0.21881   0.37515   0.0000000000
N          N       0.79141   0.18768   0.38223   0.0000000000
C          C       0.27843   0.65772   0.61902   0.0000000000
C          C       0.28931   0.75192   0.62791   0.0000000000
C          C       0.63766   0.53123   0.54210   0.0000000000
C          C       0.59916   0.53107   0.54158   0.0000000000
C          C       0.51932   0.53129   0.53559   0.0000000000
C          C       0.08047   0.00021   0.48853   0.0000000000
C          C       0.03981   0.00012   0.48956   0.0000000000
C          C       0.57952   0.49987   0.51602   0.0000000000
C          C       0.53887   0.49994   0.51607   0.0000000000
C          C       0.42066   0.50015   0.51533   0.0000000000
C          C       0.46131   0.50007   0.51572   0.0000000000
C          C       0.34384   0.50031   0.51433   0.0000000000
C          C       0.30318   0.56340   0.57611   0.0000000000
C          C       0.30292   0.43738   0.45245   0.0000000000
C          C       0.65634   0.49976   0.51545   0.0000000000
C          C       0.69724   0.56270   0.57746   0.0000000000
C          C       0.69700   0.43672   0.45199   0.0000000000
C          C       0.80183   0.06271   0.43530   0.0000000000
C          C       0.19790   0.06345   0.42472   0.0000000000
C          C       0.19827   0.93741   0.54804   0.0000000000
C          C       0.80218   0.93666   0.55858   0.0000000000
C          C       0.15729   0.00036   0.48700   0.0000000000
H          H       0.78075   0.69326   0.63852   0.0000000000
H          H       0.81616   0.74727   0.63524   0.0000000000
H          H       0.71915   0.80624   0.63382   0.0000000000
H          H       0.68374   0.75223   0.63757   0.0000000000
H          H       0.74979   0.84488   0.61657   0.0000000000
H          H       0.75415   0.90724   0.58751   0.0000000000
H          H       0.78918   0.96083   0.54815   0.0000000000
H          H       0.88639   0.90217   0.55917   0.0000000000
H          H       0.85116   0.84843   0.59807   0.0000000000
H          H       0.75000   0.65449   0.62762   0.0000000000
H          H       0.74541   0.59202   0.60394   0.0000000000
H          H       0.71014   0.53846   0.56861   0.0000000000
H          H       0.61317   0.59750   0.57680   0.0000000000
H          H       0.64864   0.65120   0.61155   0.0000000000
H          H       0.68416   0.49972   0.51528   0.0000000000
H          H       0.58551   0.55470   0.56064   0.0000000000
H          H       0.58532   0.44503   0.47113   0.0000000000
H          H       0.53296   0.55503   0.55053   0.0000000000
H          H       0.46742   0.55515   0.55024   0.0000000000
H          H       0.46722   0.44497   0.48136   0.0000000000
H          H       0.53277   0.44486   0.48163   0.0000000000
H          H       0.41486   0.55502   0.55942   0.0000000000
H          H       0.41465   0.44530   0.47083   0.0000000000
H          H       0.31602   0.50037   0.51402   0.0000000000
H          H       0.38736   0.59796   0.57337   0.0000000000
H          H       0.35208   0.65181   0.60681   0.0000000000
H          H       0.25512   0.59289   0.60229   0.0000000000
H          H       0.29020   0.53919   0.56818   0.0000000000
H          H       0.25073   0.65537   0.62422   0.0000000000
H          H       0.31711   0.75304   0.62825   0.0000000000
H          H       0.28172   0.80706   0.62332   0.0000000000
H          H       0.18469   0.74815   0.63024   0.0000000000
H          H       0.22006   0.69412   0.63450   0.0000000000
H          H       0.25101   0.84576   0.60562   0.0000000000
H          H       0.24645   0.90814   0.57538   0.0000000000
H          H       0.21118   0.96161   0.53666   0.0000000000
H          H       0.11418   0.90267   0.55271   0.0000000000
H          H       0.14964   0.84906   0.59091   0.0000000000
H          H       0.29001   0.46158   0.46380   0.0000000000
H          H       0.25475   0.40812   0.42423   0.0000000000
H          H       0.38701   0.40264   0.44872   0.0000000000
H          H       0.35156   0.34903   0.40949   0.0000000000
H          H       0.31645   0.24811   0.36922   0.0000000000
H          H       0.28103   0.19412   0.36499   0.0000000000
H          H       0.21945   0.30709   0.37587   0.0000000000
H          H       0.18403   0.25308   0.37126   0.0000000000
H          H       0.25034   0.15538   0.37554   0.0000000000
H          H       0.24595   0.09292   0.39754   0.0000000000
H          H       0.21088   0.03924   0.43249   0.0000000000
H          H       0.11373   0.09802   0.42890   0.0000000000
H          H       0.14900   0.15184   0.39452   0.0000000000
H          H       0.08622   0.05508   0.44449   0.0000000000
H          H       0.88592   0.09748   0.43354   0.0000000000
H          H       0.85045   0.15119   0.39946   0.0000000000
H          H       0.75365   0.09204   0.40997   0.0000000000
H          H       0.78892   0.03848   0.44466   0.0000000000
H          H       0.74908   0.15452   0.38578   0.0000000000
H          H       0.81540   0.25221   0.37314   0.0000000000
H          H       0.78003   0.30624   0.37665   0.0000000000
H          H       0.71835   0.19330   0.37454   0.0000000000
H          H       0.68298   0.24733   0.37760   0.0000000000
H          H       0.74940   0.34493   0.39409   0.0000000000
H          H       0.74504   0.40731   0.42302   0.0000000000
H          H       0.71000   0.46089   0.46227   0.0000000000
H          H       0.61280   0.40221   0.45169   0.0000000000
H          H       0.64805   0.34846   0.41305   0.0000000000
H          H       0.25019   0.34576   0.39367   0.0000000000
H          H       0.90899   0.94268   0.51786   0.0000000000
H          H       0.08468   0.94571   0.51218   0.0000000000
H          H       0.03279   0.05570   0.47245   0.0000000000
H          H       0.91568   0.05501   0.46986   0.0000000000
H          H       0.96430   0.04997   0.47341   0.0000000000
H          H       0.96506   0.94626   0.50916   0.0000000000
H          H       0.03731   0.94951   0.50802   0.0000000000
C          C       0.84533  -0.00215   0.47284   0.0000000000
H          H       0.81464  -0.00201   0.48200   0.0000000000
H          H       0.18726  -0.00080   0.47802   0.0000000000
C          C       0.95672   0.00183   0.47309   0.0000000000
C          C       0.92177   0.00213   0.47841   0.0000000000
C          C       0.35923   0.40389   0.94418   0.0000000000
C          C       0.33877   0.37328   0.92151   0.0000000000
C          C       0.71764   0.59324   1.09776   0.0000000000
C          C       0.34144   0.43624   0.96064   0.0000000000
C          C       0.30031   0.37480   0.91453   0.0000000000
C          C       0.23229   0.28276   0.87415   0.0000000000
C          C       0.27088   0.28153   0.87450   0.0000000000
N          N       0.29252   0.31261   0.88595   0.0000000000
C          C       0.77750   0.84252   1.11213   0.0000000000
C          C       0.78836   0.74840   1.13497   0.0000000000
C          C       0.13864   0.96886   1.01351   0.0000000000
C          C       0.10015   0.96901   1.01352   0.0000000000
C          C       0.02038   0.96882   1.00925   0.0000000000
C          C       0.85861   0.90333   1.06448   0.0000000000
C          C       0.83828   0.87265   1.08698   0.0000000000
C          C       0.21818   0.09406   0.90464   0.0000000000
C          C       0.84070   0.93565   1.04926   0.0000000000
C          C       0.79982   0.87405   1.09505   0.0000000000
C          C       0.73199   0.78191   1.13424   0.0000000000
C          C       0.77058   0.78070   1.13265   0.0000000000
N          N       0.79218   0.81180   1.12169   0.0000000000
C          C       0.27790   0.34334   0.89709   0.0000000000
C          C       0.28865   0.24924   0.87040   0.0000000000
C          C       0.63754   0.46834   0.98902   0.0000000000
C          C       0.59905   0.46862   0.99009   0.0000000000
C          C       0.51921   0.46865   0.99642   0.0000000000
C          C       0.64095   0.59625   1.08176   0.0000000000
C          C       0.66142   0.62691   1.10191   0.0000000000
C          C       0.28253   0.40690   0.92971   0.0000000000
C          C       0.65873   0.56384   1.06842   0.0000000000
C          C       0.69987   0.62539   1.10951   0.0000000000
C          C       0.76791   0.71759   1.13691   0.0000000000
C          C       0.72932   0.71880   1.13674   0.0000000000
N          N       0.70769   0.68768   1.12966   0.0000000000
C          C       0.22264   0.15775   0.88099   0.0000000000
C          C       0.21183   0.25195   0.87155   0.0000000000
C          C       0.86145   0.03122   0.96896   0.0000000000
C          C       0.89994   0.03107   0.96848   0.0000000000
C          C       0.97971   0.03124   0.97223   0.0000000000
C          C       0.14151   0.09685   0.92307   0.0000000000
C          C       0.16186   0.12758   0.90313   0.0000000000
C          C       0.78192   0.90611   1.08118   0.0000000000
C          C       0.15940   0.06447   0.93500   0.0000000000
C          C       0.20030   0.12618   0.89433   0.0000000000
C          C       0.26819   0.21844   0.86793   0.0000000000
C          C       0.22960   0.21965   0.86936   0.0000000000
N          N       0.20799   0.18851   0.87601   0.0000000000
C          C       0.72230   0.65691   1.12316   0.0000000000
C          C       0.71154   0.75110   1.13634   0.0000000000
C          C       0.36264   0.53173   1.04080   0.0000000000
C          C       0.40113   0.53143   1.04049   0.0000000000
C          C       0.48097   0.53136   1.03542   0.0000000000
C          C       0.64058   0.40337   0.94635   0.0000000000
C          C       0.66092   0.37269   0.92397   0.0000000000
C          C       0.28289   0.59402   1.09569   0.0000000000
C          C       0.65849   0.43570   0.96141   0.0000000000
C          C       0.69938   0.37410   0.91581   0.0000000000
C          C       0.76717   0.28192   0.87678   0.0000000000
C          C       0.72858   0.28073   0.87899   0.0000000000
N          N       0.70700   0.31185   0.88983   0.0000000000
C          C       0.22330   0.84335   1.10247   0.0000000000
C          C       0.21249   0.74926   1.12904   0.0000000000
C          C       0.86163   0.96831   1.02150   0.0000000000
C          C       0.90012   0.96859   1.01946   0.0000000000
C          C       0.97990   0.96873   1.01046   0.0000000000
C          C       0.14196   0.90392   1.05684   0.0000000000
C          C       0.16243   0.87331   1.07895   0.0000000000
C          C       0.78143   0.09325   0.91540   0.0000000000
C          C       0.15975   0.93628   1.04041   0.0000000000
C          C       0.20089   0.87482   1.08541   0.0000000000
C          C       0.26887   0.78274   1.12517   0.0000000000
C          C       0.23028   0.78154   1.12486   0.0000000000
N          N       0.20867   0.81263   1.11360   0.0000000000
C          C       0.72169   0.34257   0.89886   0.0000000000
C          C       0.71078   0.24844   0.87742   0.0000000000
C          C       0.36252   0.46882   0.98826   0.0000000000
C          C       0.40101   0.46895   0.98952   0.0000000000
C          C       0.48086   0.46871   0.99625   0.0000000000
C          C       0.35958   0.59680   1.07868   0.0000000000
C          C       0.33922   0.62754   1.09808   0.0000000000
C          C       0.71727   0.40617   0.92946   0.0000000000
C          C       0.34169   0.56442   1.06655   0.0000000000
C          C       0.30077   0.62614   1.10618   0.0000000000
C          C       0.23292   0.71844   1.13157   0.0000000000
C          C       0.27152   0.71963   1.13018   0.0000000000
N          N       0.29311   0.68848   1.12389   0.0000000000
C          C       0.77679   0.15692   0.88950   0.0000000000
C          C       0.78760   0.25110   0.87481   0.0000000000
C          C       0.13846   0.03178   0.96128   0.0000000000
C          C       0.09997   0.03149   0.96286   0.0000000000
C          C       0.02019   0.03133   0.97103   0.0000000000
C          C       0.85814   0.09624   0.92932   0.0000000000
C          C       0.83767   0.12690   0.90956   0.0000000000
C          C       0.21867   0.90692   1.07026   0.0000000000
C          C       0.84036   0.06383   0.94328   0.0000000000
C          C       0.79921   0.12540   0.90297   0.0000000000
C          C       0.73121   0.21762   0.87560   0.0000000000
C          C       0.76980   0.21881   0.87515   0.0000000000
N          N       0.79141   0.18768   0.88223   0.0000000000
C          C       0.27843   0.65772   1.11902   0.0000000000
C          C       0.28931   0.75192   1.12791   0.0000000000
C          C       0.63766   0.53123   1.04211   0.0000000000
C          C       0.59916   0.53107   1.04158   0.0000000000
C          C       0.51932   0.53129   1.03559   0.0000000000
C          C       0.08047   0.00021   0.98852   0.0000000000
C          C       0.03981   0.00012   0.98956   0.0000000000
C          C       0.57952   0.49987   1.01602   0.0000000000
C          C       0.53887   0.49994   1.01607   0.0000000000
C          C       0.42066   0.50015   1.01533   0.0000000000
C          C       0.46131   0.50007   1.01572   0.0000000000
C          C       0.34384   0.50031   1.01433   0.0000000000
C          C       0.30318   0.56340   1.07611   0.0000000000
C          C       0.30292   0.43738   0.95245   0.0000000000
C          C       0.65634   0.49976   1.01545   0.0000000000
C          C       0.69724   0.56270   1.07746   0.0000000000
C          C       0.69700   0.43672   0.95199   0.0000000000
C          C       0.80183   0.06271   0.93530   0.0000000000
C          C       0.19790   0.06345   0.92472   0.0000000000
C          C       0.19827   0.93741   1.04804   0.0000000000
C          C       0.80218   0.93666   1.05858   0.0000000000
C          C       0.15729   0.00036   0.98700   0.0000000000
H          H       0.78075   0.69326   1.13852   0.0000000000
H          H       0.81616   0.74727   1.13524   0.0000000000
H          H       0.71915   0.80624   1.13382   0.0000000000
H          H       0.68374   0.75223   1.13757   0.0000000000
H          H       0.74979   0.84488   1.11657   0.0000000000
H          H       0.75415   0.90724   1.08751   0.0000000000
H          H       0.78918   0.96083   1.04815   0.0000000000
H          H       0.88639   0.90217   1.05917   0.0000000000
H          H       0.85116   0.84843   1.09807   0.0000000000
H          H       0.75000   0.65449   1.12763   0.0000000000
H          H       0.74541   0.59202   1.10394   0.0000000000
H          H       0.71014   0.53846   1.06862   0.0000000000
H          H       0.61317   0.59750   1.07680   0.0000000000
H          H       0.64864   0.65120   1.11155   0.0000000000
H          H       0.68416   0.49972   1.01528   0.0000000000
H          H       0.58551   0.55470   1.06064   0.0000000000
H          H       0.58532   0.44503   0.97113   0.0000000000
H          H       0.53296   0.55503   1.05053   0.0000000000
H          H       0.46742   0.55515   1.05024   0.0000000000
H          H       0.46722   0.44497   0.98136   0.0000000000
H          H       0.53277   0.44486   0.98163   0.0000000000
H          H       0.41486   0.55502   1.05942   0.0000000000
H          H       0.41465   0.44530   0.97083   0.0000000000
H          H       0.31602   0.50037   1.01402   0.0000000000
H          H       0.38736   0.59796   1.07337   0.0000000000
H          H       0.35208   0.65181   1.10681   0.0000000000
H          H       0.25512   0.59289   1.10229   0.0000000000
H          H       0.29020   0.53919   1.06818   0.0000000000
H          H       0.25073   0.65537   1.12422   0.0000000000
H          H       0.31711   0.75304   1.12824   0.0000000000
H          H       0.28172   0.80706   1.12332   0.0000000000
H          H       0.18469   0.74815   1.13024   0.0000000000
H          H       0.22006   0.69412   1.13451   0.0000000000
H          H       0.25101   0.84576   1.10562   0.0000000000
H          H       0.24645   0.90814   1.07538   0.0000000000
H          H       0.21118   0.96161   1.03666   0.0000000000
H          H       0.11418   0.90267   1.05271   0.0000000000
H          H       0.14964   0.84906   1.09091   0.0000000000
H          H       0.29001   0.46158   0.96380   0.0000000000
H          H       0.25475   0.40812   0.92423   0.0000000000
H          H       0.38701   0.40264   0.94872   0.0000000000
H          H       0.35156   0.34903   0.90949   0.0000000000
H          H       0.31645   0.24811   0.86922   0.0000000000
H          H       0.28103   0.19412   0.86499   0.0000000000
H          H       0.21945   0.30709   0.87587   0.0000000000
H          H       0.18403   0.25308   0.87126   0.0000000000
H          H       0.25034   0.15538   0.87554   0.0000000000
H          H       0.24595   0.09292   0.89755   0.0000000000
H          H       0.21088   0.03924   0.93249   0.0000000000
H          H       0.11373   0.09802   0.92890   0.0000000000
H          H       0.14900   0.15184   0.89452   0.0000000000
H          H       0.08622   0.05508   0.94449   0.0000000000
H          H       0.88592   0.09748   0.93354   0.0000000000
H          H       0.85045   0.15119   0.89946   0.0000000000
H          H       0.75365   0.09204   0.90997   0.0000000000
H          H       0.78892   0.03848   0.94466   0.0000000000
H          H       0.74908   0.15452   0.88579   0.0000000000
H          H       0.81540   0.25221   0.87314   0.0000000000
H          H       0.78003   0.30624   0.87665   0.0000000000
H          H       0.71835   0.19330   0.87454   0.0000000000
H          H       0.68298   0.24733   0.87760   0.0000000000
H          H       0.74940   0.34493   0.89409   0.0000000000
H          H       0.74504   0.40731   0.92302   0.0000000000
H          H       0.71000   0.46089   0.96227   0.0000000000
H          H       0.61280   0.40221   0.95169   0.0000000000
H          H       0.64805   0.34846   0.91304   0.0000000000
H          H       0.25019   0.34576   0.89367   0.0000000000
H          H       0.90899   0.94268   1.01786   0.0000000000
H          H       0.08468   0.94571   1.01218   0.0000000000
H          H       0.03279   0.05570   0.97245   0.0000000000
H          H       0.91568   0.05501   0.96986   0.0000000000
H          H       0.96430   0.04997   0.97342   0.0000000000
H          H       0.96506   0.94626   1.00916   0.0000000000
H          H       0.03731   0.94951   1.00802   0.0000000000
C          C       0.84533  -0.00215   0.97284   0.0000000000
H          H       0.81464  -0.00201   0.98200   0.0000000000
H          H       0.18726  -0.00080   0.97802   0.0000000000
C          C       0.95672   0.00183   0.97309   0.0000000000
C          C       0.92177   0.00213   0.97841   0.0000000000
