data_crystal

_cell_length_a    32.81000
_cell_length_b    32.81000
_cell_length_c    6.82000
_cell_angle_alpha 90.00000
_cell_angle_beta  90.00000
_cell_angle_gamma 120.00000

_space_group_name_Hall 'P 1'
_space_group_name_H-M_alt  'P 1'

loop_
_symmetry_equiv_pos_as_xyz
'x,y,z' 

loop_
_atom_site_label
_atom_site_type_symbol
_atom_site_fract_x
_atom_site_fract_y
_atom_site_fract_z
C          C       0.49407   0.45597   0.45273 
C          C       0.54403   0.03810   0.45273 
C          C       0.96190   0.50593   0.45273 
C          C       0.50593   0.54403   0.45273 
C          C       0.45597   0.96190   0.45273 
C          C       0.03810   0.49407   0.45273 
C          C       0.53924   0.49421   0.41287 
C          C       0.50579   0.04503   0.41287 
C          C       0.95497   0.46076   0.41287 
C          C       0.46076   0.50579   0.41287 
C          C       0.49421   0.95497   0.41287 
C          C       0.04503   0.53924   0.41287 
C          C       0.54420   0.53938   0.41204 
C          C       0.46062   0.00482   0.41204 
C          C       0.99518   0.45580   0.41204 
C          C       0.45580   0.46062   0.41204 
C          C       0.53938   0.99518   0.41204 
C          C       0.00482   0.54420   0.41204 
C          C       0.58519   0.58316   0.32147 
C          C       0.41684   0.00203   0.32147 
C          C       0.99797   0.41481   0.32147 
C          C       0.41481   0.41684   0.32147 
C          C       0.58316   0.99797   0.32147 
C          C       0.00203   0.58519   0.32147 
C          C       0.62419   0.51337   0.35069 
C          C       0.48663   0.11082   0.35069 
C          C       0.88918   0.37581   0.35069 
C          C       0.37581   0.48663   0.35069 
C          C       0.51337   0.88918   0.35069 
C          C       0.11082   0.62419   0.35069 
C          C       0.65508   0.50109   0.26172 
C          C       0.49891   0.15399   0.26172 
C          C       0.84601   0.34492   0.26172 
C          C       0.34492   0.49891   0.26172 
C          C       0.50109   0.84601   0.26172 
C          C       0.15399   0.65508   0.26172 
C          C       0.63704   0.45674   0.17398 
C          C       0.54326   0.18030   0.17398 
C          C       0.81970   0.36296   0.17398 
C          C       0.36296   0.54326   0.17398 
C          C       0.45674   0.81970   0.17398 
C          C       0.18030   0.63704   0.17398 
C          C       0.58868   0.42489   0.18285 
C          C       0.57511   0.16379   0.18285 
C          C       0.83621   0.41132   0.18285 
C          C       0.41132   0.57511   0.18285 
C          C       0.42489   0.83621   0.18285 
C          C       0.16379   0.58868   0.18285 
C          C       0.55875   0.43804   0.25734 
C          C       0.56196   0.12071   0.25734 
C          C       0.87929   0.44125   0.25734 
C          C       0.44125   0.56196   0.25734 
C          C       0.43804   0.87929   0.25734 
C          C       0.12071   0.55875   0.25734 
C          C       0.57511   0.48276   0.33993 
C          C       0.51724   0.09235   0.33993 
C          C       0.90765   0.42489   0.33993 
C          C       0.42489   0.51724   0.33993 
C          C       0.48276   0.90765   0.33993 
C          C       0.09235   0.57511   0.33993 
C          C       0.61875   0.32255   0.41256 
C          C       0.67745   0.29620   0.41256 
C          C       0.70380   0.38125   0.41256 
C          C       0.38125   0.67745   0.41256 
C          C       0.32255   0.70380   0.41256 
C          C       0.29620   0.61875   0.41256 
C          C       0.65530   0.36873   0.41942 
C          C       0.63127   0.28657   0.41942 
C          C       0.71343   0.34470   0.41942 
C          C       0.34470   0.63127   0.41942 
C          C       0.36873   0.71343   0.41942 
C          C       0.28657   0.65530   0.41942 
N          N       0.02511   0.39476   0.41969 
N          N       0.60524   0.63035   0.41969 
N          N       0.36965   0.97489   0.41969 
N          N       0.97489   0.60524   0.41969 
N          N       0.39476   0.36965   0.41969 
N          N       0.63035   0.02511   0.41969 
C          C       0.01116   0.35214   0.49789 
C          C       0.64786   0.65902   0.49789 
C          C       0.34098   0.98884   0.49789 
C          C       0.98884   0.64786   0.49789 
C          C       0.35214   0.34098   0.49789 
C          C       0.65902   0.01116   0.49789 
C          C       0.05046   0.34798   0.03173 
C          C       0.65202   0.70248   0.03173 
C          C       0.29752   0.94954   0.03173 
C          C       0.94954   0.65202   0.03173 
C          C       0.34798   0.29752   0.03173 
C          C       0.70248   0.05046   0.03173 
N          N       0.08856   0.38824   0.47331 
N          N       0.61176   0.70032   0.47331 
N          N       0.29968   0.91144   0.47331 
N          N       0.91144   0.61176   0.47331 
N          N       0.38824   0.29968   0.47331 
N          N       0.70032   0.08856   0.47331 
C          C       0.07201   0.41504   0.39998 
C          C       0.58496   0.65697   0.39998 
C          C       0.34303   0.92799   0.39998 
C          C       0.92799   0.58496   0.39998 
C          C       0.41504   0.34303   0.39998 
C          C       0.65697   0.07201   0.39998 
C          C       0.13621   0.39687   0.44542 
C          C       0.60313   0.73934   0.44542 
C          C       0.26066   0.86379   0.44542 
C          C       0.86379   0.60313   0.44542 
C          C       0.39687   0.26066   0.44542 
C          C       0.73934   0.13621   0.44542 
C          C       0.54722   0.72293   0.48843 
C          C       0.27707   0.82429   0.48843 
C          C       0.17571   0.45278   0.48843 
C          C       0.45278   0.27707   0.48843 
C          C       0.72293   0.17571   0.48843 
C          C       0.82429   0.54722   0.48843 
C          C       0.53583   0.76104   0.43124 
C          C       0.23896   0.77479   0.43124 
C          C       0.22521   0.46417   0.43124 
C          C       0.46417   0.23896   0.43124 
C          C       0.76104   0.22521   0.43124 
C          C       0.77479   0.53583   0.43124 
N          N       0.35506   0.59621   0.48202 
N          N       0.40379   0.75885   0.48202 
N          N       0.24115   0.64494   0.48202 
N          N       0.64494   0.40379   0.48202 
N          N       0.59621   0.24115   0.48202 
N          N       0.75885   0.35506   0.48202 
C          C       0.33179   0.55819   0.08366 
C          C       0.44181   0.77360   0.08366 
C          C       0.22640   0.66821   0.08366 
C          C       0.66821   0.44181   0.08366 
C          C       0.55819   0.22640   0.08366 
C          C       0.77360   0.33179   0.08366 
H          H       0.48962   0.42197   0.48134 
H          H       0.57803   0.06765   0.48134 
H          H       0.93235   0.51038   0.48134 
H          H       0.51038   0.57803   0.48134 
H          H       0.42197   0.93235   0.48134 
H          H       0.06765   0.48962   0.48134 
H          H       0.56787   0.58640   0.19651 
H          H       0.41360   0.98147   0.19651 
H          H       0.01853   0.43213   0.19651 
H          H       0.43213   0.41360   0.19651 
H          H       0.58640   0.01853   0.19651 
H          H       0.98147   0.56787   0.19651 
H          H       0.61482   0.58081   0.25983 
H          H       0.41919   0.03401   0.25983 
H          H       0.96599   0.38518   0.25983 
H          H       0.38518   0.41919   0.25983 
H          H       0.58081   0.96599   0.25983 
H          H       0.03401   0.61482   0.25983 
H          H       0.63907   0.54540   0.43578 
H          H       0.45460   0.09367   0.43578 
H          H       0.90633   0.36093   0.43578 
H          H       0.36093   0.45460   0.43578 
H          H       0.54540   0.90633   0.43578 
H          H       0.09367   0.63907   0.43578 
H          H       0.69232   0.52550   0.26583 
H          H       0.47450   0.16682   0.26583 
H          H       0.83318   0.30768   0.26583 
H          H       0.30768   0.47450   0.26583 
H          H       0.52550   0.83318   0.26583 
H          H       0.16682   0.69232   0.26583 
H          H       0.57281   0.38923   0.12699 
H          H       0.61077   0.18358   0.12699 
H          H       0.81642   0.42719   0.12699 
H          H       0.42719   0.61077   0.12699 
H          H       0.38923   0.81642   0.12699 
H          H       0.18358   0.57281   0.12699 
H          H       0.52230   0.41198   0.24293 
H          H       0.58802   0.11032   0.24293 
H          H       0.88968   0.47770   0.24293 
H          H       0.47770   0.58802   0.24293 
H          H       0.41198   0.88968   0.24293 
H          H       0.11032   0.52230   0.24293 
H          H       0.58279   0.31503   0.42795 
H          H       0.68497   0.26776   0.42795 
H          H       0.73224   0.41721   0.42795 
H          H       0.41721   0.68497   0.42795 
H          H       0.31503   0.73224   0.42795 
H          H       0.26776   0.58279   0.42795 
H          H       0.97513   0.32601   0.02335 
H          H       0.67399   0.64912   0.02335 
H          H       0.35088   0.02487   0.02335 
H          H       0.02487   0.67399   0.02335 
H          H       0.32601   0.35088   0.02335 
H          H       0.64912   0.97513   0.02335 
H          H       0.05094   0.31727   0.08656 
H          H       0.68273   0.73367   0.08656 
H          H       0.26633   0.94906   0.08656 
H          H       0.94906   0.68273   0.08656 
H          H       0.31727   0.26633   0.08656 
H          H       0.73367   0.05094   0.08656 
H          H       0.09291   0.44643   0.31466 
H          H       0.55357   0.64648   0.31466 
H          H       0.35352   0.90709   0.31466 
H          H       0.90709   0.55357   0.31466 
H          H       0.44643   0.35352   0.31466 
H          H       0.64648   0.09291   0.31466 
H          H       0.13914   0.38906   0.29730 
H          H       0.61094   0.75008   0.29730 
H          H       0.24992   0.86086   0.29730 
H          H       0.86086   0.61094   0.29730 
H          H       0.38906   0.24992   0.29730 
H          H       0.75008   0.13914   0.29730 
H          H       0.14225   0.37045   0.01989 
H          H       0.62955   0.77180   0.01989 
H          H       0.22820   0.85775   0.01989 
H          H       0.85775   0.62955   0.01989 
H          H       0.37045   0.22820   0.01989 
H          H       0.77180   0.14225   0.01989 
H          H       0.52166   0.68916   0.41919 
H          H       0.31084   0.83250   0.41919 
H          H       0.16750   0.47834   0.41919 
H          H       0.47834   0.31084   0.41919 
H          H       0.68916   0.16750   0.41919 
H          H       0.83250   0.52166   0.41919 
H          H       0.53858   0.71357   0.13751 
H          H       0.28643   0.82501   0.13751 
H          H       0.17499   0.46142   0.13751 
H          H       0.46142   0.28643   0.13751 
H          H       0.71357   0.17499   0.13751 
H          H       0.82501   0.53858   0.13751 
H          H       0.56370   0.78764   0.33688 
H          H       0.21236   0.77606   0.33688 
H          H       0.22394   0.43630   0.33688 
H          H       0.43630   0.21236   0.33688 
H          H       0.78764   0.22394   0.33688 
H          H       0.77606   0.56370   0.33688 
H          H       0.53321   0.78036   0.05645 
H          H       0.21964   0.75285   0.05645 
H          H       0.24715   0.46679   0.05645 
H          H       0.46679   0.21964   0.05645 
H          H       0.78036   0.24715   0.05645 
H          H       0.75285   0.53321   0.05645 
H          H       0.50141   0.74470   0.35553 
H          H       0.25530   0.75671   0.35553 
H          H       0.24329   0.49859   0.35553 
H          H       0.49859   0.25530   0.35553 
H          H       0.74470   0.24329   0.35553 
H          H       0.75671   0.50141   0.35553 
H          H       0.29593   0.54547   0.12845 
H          H       0.45453   0.75046   0.12845 
H          H       0.24954   0.70407   0.12845 
H          H       0.70407   0.45453   0.12845 
H          H       0.54547   0.24954   0.12845 
H          H       0.75046   0.29593   0.12845 
C          C       0.49407   0.45597   0.95273 
C          C       0.54403   0.03810   0.95273 
C          C       0.96190   0.50593   0.95273 
C          C       0.50593   0.54403   0.95273 
C          C       0.45597   0.96190   0.95273 
C          C       0.03810   0.49407   0.95273 
C          C       0.53924   0.49421   0.91287 
C          C       0.50579   0.04503   0.91287 
C          C       0.95497   0.46076   0.91287 
C          C       0.46076   0.50579   0.91287 
C          C       0.49421   0.95497   0.91287 
C          C       0.04503   0.53924   0.91287 
C          C       0.54420   0.53938   0.91204 
C          C       0.46062   0.00482   0.91204 
C          C       0.99518   0.45580   0.91204 
C          C       0.45580   0.46062   0.91204 
C          C       0.53938   0.99518   0.91204 
C          C       0.00482   0.54420   0.91204 
C          C       0.58519   0.58316   0.82147 
C          C       0.41684   0.00203   0.82147 
C          C       0.99797   0.41481   0.82147 
C          C       0.41481   0.41684   0.82147 
C          C       0.58316   0.99797   0.82147 
C          C       0.00203   0.58519   0.82147 
C          C       0.62419   0.51337   0.85069 
C          C       0.48663   0.11082   0.85069 
C          C       0.88918   0.37581   0.85069 
C          C       0.37581   0.48663   0.85069 
C          C       0.51337   0.88918   0.85069 
C          C       0.11082   0.62419   0.85069 
C          C       0.65508   0.50109   0.76172 
C          C       0.49891   0.15399   0.76172 
C          C       0.84601   0.34492   0.76172 
C          C       0.34492   0.49891   0.76172 
C          C       0.50109   0.84601   0.76172 
C          C       0.15399   0.65508   0.76172 
C          C       0.63704   0.45674   0.67398 
C          C       0.54326   0.18030   0.67398 
C          C       0.81970   0.36296   0.67398 
C          C       0.36296   0.54326   0.67398 
C          C       0.45674   0.81970   0.67398 
C          C       0.18030   0.63704   0.67398 
C          C       0.58868   0.42489   0.68285 
C          C       0.57511   0.16379   0.68285 
C          C       0.83621   0.41132   0.68285 
C          C       0.41132   0.57511   0.68285 
C          C       0.42489   0.83621   0.68285 
C          C       0.16379   0.58868   0.68285 
C          C       0.55875   0.43804   0.75734 
C          C       0.56196   0.12071   0.75734 
C          C       0.87929   0.44125   0.75734 
C          C       0.44125   0.56196   0.75734 
C          C       0.43804   0.87929   0.75734 
C          C       0.12071   0.55875   0.75734 
C          C       0.57511   0.48276   0.83993 
C          C       0.51724   0.09235   0.83993 
C          C       0.90765   0.42489   0.83993 
C          C       0.42489   0.51724   0.83993 
C          C       0.48276   0.90765   0.83993 
C          C       0.09235   0.57511   0.83993 
C          C       0.61875   0.32255   0.91256 
C          C       0.67745   0.29620   0.91256 
C          C       0.70380   0.38125   0.91256 
C          C       0.38125   0.67745   0.91256 
C          C       0.32255   0.70380   0.91256 
C          C       0.29620   0.61875   0.91256 
C          C       0.65530   0.36873   0.91942 
C          C       0.63127   0.28657   0.91942 
C          C       0.71343   0.34470   0.91942 
C          C       0.34470   0.63127   0.91942 
C          C       0.36873   0.71343   0.91942 
C          C       0.28657   0.65530   0.91942 
N          N       0.02511   0.39476   0.91969 
N          N       0.60524   0.63035   0.91969 
N          N       0.36965   0.97489   0.91969 
N          N       0.97489   0.60524   0.91969 
N          N       0.39476   0.36965   0.91969 
N          N       0.63035   0.02511   0.91969 
C          C       0.01116   0.35214   0.99789 
C          C       0.64786   0.65902   0.99789 
C          C       0.34098   0.98884   0.99789 
C          C       0.98884   0.64786   0.99789 
C          C       0.35214   0.34098   0.99789 
C          C       0.65902   0.01116   0.99789 
C          C       0.05046   0.34798   0.53173 
C          C       0.65202   0.70248   0.53173 
C          C       0.29752   0.94954   0.53173 
C          C       0.94954   0.65202   0.53173 
C          C       0.34798   0.29752   0.53173 
C          C       0.70248   0.05046   0.53173 
N          N       0.08856   0.38824   0.97331 
N          N       0.61176   0.70032   0.97331 
N          N       0.29968   0.91144   0.97331 
N          N       0.91144   0.61176   0.97331 
N          N       0.38824   0.29968   0.97331 
N          N       0.70032   0.08856   0.97331 
C          C       0.07201   0.41504   0.89998 
C          C       0.58496   0.65697   0.89998 
C          C       0.34303   0.92799   0.89998 
C          C       0.92799   0.58496   0.89998 
C          C       0.41504   0.34303   0.89998 
C          C       0.65697   0.07201   0.89998 
C          C       0.13621   0.39687   0.94542 
C          C       0.60313   0.73934   0.94542 
C          C       0.26066   0.86379   0.94542 
C          C       0.86379   0.60313   0.94542 
C          C       0.39687   0.26066   0.94542 
C          C       0.73934   0.13621   0.94542 
C          C       0.54722   0.72293   0.98843 
C          C       0.27707   0.82429   0.98843 
C          C       0.17571   0.45278   0.98843 
C          C       0.45278   0.27707   0.98843 
C          C       0.72293   0.17571   0.98843 
C          C       0.82429   0.54722   0.98843 
C          C       0.53583   0.76104   0.93124 
C          C       0.23896   0.77479   0.93124 
C          C       0.22521   0.46417   0.93124 
C          C       0.46417   0.23896   0.93124 
C          C       0.76104   0.22521   0.93124 
C          C       0.77479   0.53583   0.93124 
N          N       0.35506   0.59621   0.98202 
N          N       0.40379   0.75885   0.98202 
N          N       0.24115   0.64494   0.98202 
N          N       0.64494   0.40379   0.98202 
N          N       0.59621   0.24115   0.98202 
N          N       0.75885   0.35506   0.98202 
C          C       0.33179   0.55819   0.58366 
C          C       0.44181   0.77360   0.58366 
C          C       0.22640   0.66821   0.58366 
C          C       0.66821   0.44181   0.58366 
C          C       0.55819   0.22640   0.58366 
C          C       0.77360   0.33179   0.58366 
H          H       0.48962   0.42197   0.98134 
H          H       0.57803   0.06765   0.98134 
H          H       0.93235   0.51038   0.98134 
H          H       0.51038   0.57803   0.98134 
H          H       0.42197   0.93235   0.98134 
H          H       0.06765   0.48962   0.98134 
H          H       0.56787   0.58640   0.69651 
H          H       0.41360   0.98147   0.69651 
H          H       0.01853   0.43213   0.69651 
H          H       0.43213   0.41360   0.69651 
H          H       0.58640   0.01853   0.69651 
H          H       0.98147   0.56787   0.69651 
H          H       0.61482   0.58081   0.75983 
H          H       0.41919   0.03401   0.75983 
H          H       0.96599   0.38518   0.75983 
H          H       0.38518   0.41919   0.75983 
H          H       0.58081   0.96599   0.75983 
H          H       0.03401   0.61482   0.75983 
H          H       0.63907   0.54540   0.93578 
H          H       0.45460   0.09367   0.93578 
H          H       0.90633   0.36093   0.93578 
H          H       0.36093   0.45460   0.93578 
H          H       0.54540   0.90633   0.93578 
H          H       0.09367   0.63907   0.93578 
H          H       0.69232   0.52550   0.76583 
H          H       0.47450   0.16682   0.76583 
H          H       0.83318   0.30768   0.76583 
H          H       0.30768   0.47450   0.76583 
H          H       0.52550   0.83318   0.76583 
H          H       0.16682   0.69232   0.76583 
H          H       0.57281   0.38923   0.62699 
H          H       0.61077   0.18358   0.62699 
H          H       0.81642   0.42719   0.62699 
H          H       0.42719   0.61077   0.62699 
H          H       0.38923   0.81642   0.62699 
H          H       0.18358   0.57281   0.62699 
H          H       0.52230   0.41198   0.74293 
H          H       0.58802   0.11032   0.74293 
H          H       0.88968   0.47770   0.74293 
H          H       0.47770   0.58802   0.74293 
H          H       0.41198   0.88968   0.74293 
H          H       0.11032   0.52230   0.74293 
H          H       0.58279   0.31503   0.92795 
H          H       0.68497   0.26776   0.92795 
H          H       0.73224   0.41721   0.92795 
H          H       0.41721   0.68497   0.92795 
H          H       0.31503   0.73224   0.92795 
H          H       0.26776   0.58279   0.92795 
H          H       0.97513   0.32601   0.52334 
H          H       0.67399   0.64912   0.52334 
H          H       0.35088   0.02487   0.52334 
H          H       0.02487   0.67399   0.52334 
H          H       0.32601   0.35088   0.52334 
H          H       0.64912   0.97513   0.52334 
H          H       0.05094   0.31727   0.58656 
H          H       0.68273   0.73367   0.58656 
H          H       0.26633   0.94906   0.58656 
H          H       0.94906   0.68273   0.58656 
H          H       0.31727   0.26633   0.58656 
H          H       0.73367   0.05094   0.58656 
H          H       0.09291   0.44643   0.81466 
H          H       0.55357   0.64648   0.81466 
H          H       0.35352   0.90709   0.81466 
H          H       0.90709   0.55357   0.81466 
H          H       0.44643   0.35352   0.81466 
H          H       0.64648   0.09291   0.81466 
H          H       0.13914   0.38906   0.79730 
H          H       0.61094   0.75008   0.79730 
H          H       0.24992   0.86086   0.79730 
H          H       0.86086   0.61094   0.79730 
H          H       0.38906   0.24992   0.79730 
H          H       0.75008   0.13914   0.79730 
H          H       0.14225   0.37045   0.51989 
H          H       0.62955   0.77180   0.51989 
H          H       0.22820   0.85775   0.51989 
H          H       0.85775   0.62955   0.51989 
H          H       0.37045   0.22820   0.51989 
H          H       0.77180   0.14225   0.51989 
H          H       0.52166   0.68916   0.91919 
H          H       0.31084   0.83250   0.91919 
H          H       0.16750   0.47834   0.91919 
H          H       0.47834   0.31084   0.91919 
H          H       0.68916   0.16750   0.91919 
H          H       0.83250   0.52166   0.91919 
H          H       0.53858   0.71357   0.63751 
H          H       0.28643   0.82501   0.63751 
H          H       0.17499   0.46142   0.63751 
H          H       0.46142   0.28643   0.63751 
H          H       0.71357   0.17499   0.63751 
H          H       0.82501   0.53858   0.63751 
H          H       0.56370   0.78764   0.83688 
H          H       0.21236   0.77606   0.83688 
H          H       0.22394   0.43630   0.83688 
H          H       0.43630   0.21236   0.83688 
H          H       0.78764   0.22394   0.83688 
H          H       0.77606   0.56370   0.83688 
H          H       0.53321   0.78036   0.55645 
H          H       0.21964   0.75285   0.55645 
H          H       0.24715   0.46679   0.55645 
H          H       0.46679   0.21964   0.55645 
H          H       0.78036   0.24715   0.55645 
H          H       0.75285   0.53321   0.55645 
H          H       0.50141   0.74470   0.85553 
H          H       0.25530   0.75671   0.85553 
H          H       0.24329   0.49859   0.85553 
H          H       0.49859   0.25530   0.85553 
H          H       0.74470   0.24329   0.85553 
H          H       0.75671   0.50141   0.85553 
H          H       0.29593   0.54547   0.62845 
H          H       0.45453   0.75046   0.62845 
H          H       0.24954   0.70407   0.62845 
H          H       0.70407   0.45453   0.62845 
H          H       0.54547   0.24954   0.62845 
H          H       0.75046   0.29593   0.62845 
