data_crystal

_cell_length_a    47.40000
_cell_length_b    47.40000
_cell_length_c    7.20000
_cell_angle_alpha 90.00000
_cell_angle_beta  90.00000
_cell_angle_gamma 120.00000

_space_group_name_Hall 'P 1'
_space_group_name_H-M_alt  'P 1'

loop_
_symmetry_equiv_pos_as_xyz
'x,y,z' 

loop_
_atom_site_label
_atom_site_type_symbol
_atom_site_fract_x
_atom_site_fract_y
_atom_site_fract_z
C          C       0.51921   0.45731   0.27664 
C          C       0.54269   0.06190   0.27664 
C          C       0.93810   0.48079   0.27664 
C          C       0.48079   0.54269   0.27664 
C          C       0.45731   0.93810   0.27664 
C          C       0.06190   0.51921   0.27664 
C          C       0.54848   0.48873   0.25097 
C          C       0.51127   0.05975   0.25097 
C          C       0.94025   0.45152   0.25097 
C          C       0.45152   0.51127   0.25097 
C          C       0.48873   0.94025   0.25097 
C          C       0.05975   0.54848   0.25097 
C          C       0.54567   0.51702   0.23235 
C          C       0.48298   0.02865   0.23235 
C          C       0.97135   0.45433   0.23235 
C          C       0.45433   0.48298   0.23235 
C          C       0.51702   0.97135   0.23235 
C          C       0.02865   0.54567   0.23235 
C          C       0.51423   0.51531   0.25737 
C          C       0.48469   0.99892   0.25737 
C          C       0.00108   0.48577   0.25737 
C          C       0.48577   0.48469   0.25737 
C          C       0.51531   0.00108   0.25737 
C          C       0.99892   0.51423   0.25737 
C          C       0.48840   0.45547   0.28332 
C          C       0.54453   0.03293   0.28332 
C          C       0.96707   0.51160   0.28332 
C          C       0.51160   0.54453   0.28332 
C          C       0.45547   0.96707   0.28332 
C          C       0.03293   0.48840   0.28332 
C          C       0.46162   0.42495   0.33391 
C          C       0.57505   0.03667   0.33391 
C          C       0.96333   0.53838   0.33391 
C          C       0.53838   0.57505   0.33391 
C          C       0.42495   0.96333   0.33391 
C          C       0.03667   0.46162   0.33391 
C          C       0.46365   0.39707   0.34764 
C          C       0.60293   0.06658   0.34764 
C          C       0.93342   0.53635   0.34764 
C          C       0.53635   0.60293   0.34764 
C          C       0.39707   0.93342   0.34764 
C          C       0.06658   0.46365   0.34764 
C          C       0.49352   0.39827   0.31546 
C          C       0.60173   0.09525   0.31546 
C          C       0.90475   0.50648   0.31546 
C          C       0.50648   0.60173   0.31546 
C          C       0.39827   0.90475   0.31546 
C          C       0.09525   0.49352   0.31546 
C          C       0.52098   0.42870   0.29043 
C          C       0.57130   0.09228   0.29043 
C          C       0.90772   0.47902   0.29043 
C          C       0.47902   0.57130   0.29043 
C          C       0.42870   0.90772   0.29043 
C          C       0.09228   0.52098   0.29043 
C          C       0.57941   0.49144   0.24624 
C          C       0.50856   0.08797   0.24624 
C          C       0.91203   0.42059   0.24624 
C          C       0.42059   0.50856   0.24624 
C          C       0.49144   0.91203   0.24624 
C          C       0.08797   0.57941   0.24624 
C          C       0.60752   0.52094   0.21139 
C          C       0.47906   0.08658   0.21139 
C          C       0.91342   0.39248   0.21139 
C          C       0.39248   0.47906   0.21139 
C          C       0.52094   0.91342   0.21139 
C          C       0.08658   0.60752   0.21139 
C          C       0.39598   0.45204   0.33294 
C          C       0.54796   0.94394   0.33294 
C          C       0.05606   0.60402   0.33294 
C          C       0.60402   0.54796   0.33294 
C          C       0.45204   0.05606   0.33294 
C          C       0.94394   0.39598   0.33294 
C          C       0.42599   0.45429   0.32507 
C          C       0.54571   0.97170   0.32507 
C          C       0.02830   0.57401   0.32507 
C          C       0.57401   0.54571   0.32507 
C          C       0.45429   0.02830   0.32507 
C          C       0.97170   0.42599   0.32507 
N          N       0.50204   0.62910   0.32194 
N          N       0.37090   0.87294   0.32194 
N          N       0.12706   0.49796   0.32194 
N          N       0.49796   0.37090   0.32194 
N          N       0.62910   0.12706   0.32194 
N          N       0.87294   0.50204   0.32194 
N          N       0.63940   0.52579   0.22588 
N          N       0.47421   0.11361   0.22588 
N          N       0.88639   0.36060   0.22588 
N          N       0.36060   0.47421   0.22588 
N          N       0.52579   0.88639   0.22588 
N          N       0.11361   0.63940   0.22588 
C          C       0.14269   0.64509   0.18694 
C          C       0.35491   0.49760   0.31306 
C          C       0.64509   0.50240   0.31306 
C          C       0.49760   0.14269   0.31306 
C          C       0.85731   0.35491   0.31306 
C          C       0.67775   0.50633   0.20851 
C          C       0.49367   0.17142   0.20851 
C          C       0.82858   0.32225   0.20851 
C          C       0.32225   0.49367   0.20851 
C          C       0.50633   0.82858   0.20851 
C          C       0.17142   0.67775   0.20851 
C          C       0.52569   0.65747   0.27298 
C          C       0.34253   0.86822   0.27298 
C          C       0.13178   0.47431   0.27298 
C          C       0.47431   0.34253   0.27298 
C          C       0.65747   0.13178   0.27298 
C          C       0.86822   0.52569   0.27298 
C          C       0.52210   0.68655   0.27318 
C          C       0.31345   0.83555   0.27318 
C          C       0.16445   0.47790   0.27318 
C          C       0.47790   0.31345   0.27318 
C          C       0.68655   0.16445   0.27318 
C          C       0.83555   0.52210   0.27318 
C          C       0.54858   0.71694   0.22523 
C          C       0.28306   0.83164   0.22523 
C          C       0.16836   0.45142   0.22523 
C          C       0.45142   0.28306   0.22523 
C          C       0.71694   0.16836   0.22523 
C          C       0.83164   0.54858   0.22523 
C          C       0.54568   0.74455   0.21898 
C          C       0.25545   0.80113   0.21898 
C          C       0.19887   0.45432   0.21898 
C          C       0.45432   0.25545   0.21898 
C          C       0.74455   0.19887   0.21898 
C          C       0.80113   0.54568   0.21898 
C          C       0.48955   0.71258   0.30657 
C          C       0.28742   0.77697   0.30657 
C          C       0.22303   0.51045   0.30657 
C          C       0.51045   0.28742   0.30657 
C          C       0.71258   0.22303   0.30657 
C          C       0.77697   0.48955   0.30657 
C          C       0.49254   0.68504   0.31530 
C          C       0.31496   0.80750   0.31530 
C          C       0.19250   0.50746   0.31530 
C          C       0.50746   0.31496   0.31530 
C          C       0.68504   0.19250   0.31530 
C          C       0.80750   0.49254   0.31530 
C          C       0.31731   0.51985   0.32943 
C          C       0.48015   0.79746   0.32943 
C          C       0.20254   0.68269   0.32943 
C          C       0.51985   0.20254   0.32943 
C          C       0.79746   0.31731   0.32943 
C          C       0.28689   0.51686   0.31110 
C          C       0.48314   0.77003   0.31110 
C          C       0.22997   0.71311   0.31110 
C          C       0.71311   0.48314   0.31110 
C          C       0.51686   0.22997   0.31110 
C          C       0.77003   0.28689   0.31110 
C          C       0.73517   0.53880   0.28180 
C          C       0.46120   0.19637   0.28180 
C          C       0.80363   0.26483   0.28180 
C          C       0.26483   0.46120   0.28180 
C          C       0.53880   0.80363   0.28180 
C          C       0.19637   0.73517   0.28180 
C          C       0.70467   0.53571   0.26582 
C          C       0.46429   0.16896   0.26582 
C          C       0.83104   0.29533   0.26582 
C          C       0.29533   0.46429   0.26582 
C          C       0.53571   0.83104   0.26582 
C          C       0.16896   0.70467   0.26582 
C          C       0.51262   0.77247   0.24385 
C          C       0.22753   0.74015   0.24385 
C          C       0.25985   0.48738   0.24385 
C          C       0.48738   0.22753   0.24385 
C          C       0.77247   0.25985   0.24385 
C          C       0.74015   0.51262   0.24385 
C          C       0.51599   0.74297   0.25776 
C          C       0.25703   0.77302   0.25776 
C          C       0.22698   0.48401   0.25776 
C          C       0.48401   0.25703   0.25776 
C          C       0.74297   0.22698   0.25776 
C          C       0.77302   0.51599   0.25776 
H          H       0.43847   0.42316   0.37099 
H          H       0.57684   0.01531   0.37099 
H          H       0.98469   0.56153   0.37099 
H          H       0.56153   0.57684   0.37099 
H          H       0.42316   0.98469   0.37099 
H          H       0.01531   0.43847   0.37099 
H          H       0.44215   0.37423   0.38870 
H          H       0.62577   0.06792   0.38870 
H          H       0.93208   0.55785   0.38870 
H          H       0.55785   0.62577   0.38870 
H          H       0.37423   0.93208   0.38870 
H          H       0.06792   0.44215   0.38870 
H          H       0.54434   0.42964   0.27629 
H          H       0.57036   0.11470   0.27629 
H          H       0.88530   0.45566   0.27629 
H          H       0.45566   0.57036   0.27629 
H          H       0.42964   0.88530   0.27629 
H          H       0.11470   0.54434   0.27629 
H          H       0.58177   0.47008   0.27446 
H          H       0.52992   0.11169   0.27446 
H          H       0.88831   0.41823   0.27446 
H          H       0.41823   0.52992   0.27446 
H          H       0.47008   0.88831   0.27446 
H          H       0.11169   0.58177   0.27446 
H          H       0.37469   0.42933   0.37741 
H          H       0.57067   0.94536   0.37741 
H          H       0.05464   0.62531   0.37741 
H          H       0.62531   0.57067   0.37741 
H          H       0.42933   0.05464   0.37741 
H          H       0.94536   0.37469   0.37741 
H          H       0.42774   0.43330   0.37099 
H          H       0.56670   0.99444   0.37099 
H          H       0.00556   0.57226   0.37099 
H          H       0.57226   0.56670   0.37099 
H          H       0.43330   0.00556   0.37099 
H          H       0.99444   0.42774   0.37099 
H          H       0.14756   0.62577   0.13295 
H          H       0.37423   0.52179   0.36705 
H          H       0.62577   0.47821   0.36705 
H          H       0.52179   0.14756   0.36705 
H          H       0.85244   0.37423   0.36705 
H          H       0.54974   0.66124   0.22338 
H          H       0.33876   0.88850   0.22338 
H          H       0.11150   0.45026   0.22338 
H          H       0.45026   0.33876   0.22338 
H          H       0.66124   0.11150   0.22338 
H          H       0.88850   0.54974   0.22338 
H          H       0.57197   0.71883   0.19124 
H          H       0.42803   0.28117   0.30876 
H          H       0.71883   0.14686   0.30876 
H          H       0.85314   0.57197   0.30876 
H          H       0.28117   0.85314   0.30876 
H          H       0.14686   0.42803   0.30876 
H          H       0.56679   0.76778   0.17896 
H          H       0.43321   0.23222   0.32104 
H          H       0.76778   0.20099   0.32104 
H          H       0.79901   0.56679   0.32104 
H          H       0.23222   0.79901   0.32104 
H          H       0.20099   0.43321   0.32104 
H          H       0.46612   0.71057   0.34032 
H          H       0.28943   0.75555   0.34032 
H          H       0.24445   0.53388   0.34032 
H          H       0.53388   0.28943   0.34032 
H          H       0.71057   0.24445   0.34032 
H          H       0.75555   0.46612   0.34032 
H          H       0.47163   0.66159   0.35419 
H          H       0.33841   0.81004   0.35419 
H          H       0.18996   0.52837   0.35419 
H          H       0.52837   0.33841   0.35419 
H          H       0.66159   0.18996   0.35419 
H          H       0.81004   0.47163   0.35419 
H          H       0.33791   0.54307   0.37499 
H          H       0.45693   0.79484   0.37499 
H          H       0.20516   0.66209   0.37499 
H          H       0.66209   0.45693   0.37499 
H          H       0.54307   0.20516   0.37499 
H          H       0.79484   0.33791   0.37499 
H          H       0.28388   0.53773   0.34372 
H          H       0.46227   0.74615   0.34372 
H          H       0.25385   0.71612   0.34372 
H          H       0.71612   0.46227   0.34372 
H          H       0.53773   0.25385   0.34372 
H          H       0.74615   0.28388   0.34372 
H          H       0.75568   0.56205   0.32740 
H          H       0.43795   0.19363   0.32740 
H          H       0.80637   0.24432   0.32740 
H          H       0.24432   0.43795   0.32740 
H          H       0.56205   0.80637   0.32740 
H          H       0.19363   0.75568   0.32740 
H          H       0.70128   0.55638   0.29733 
H          H       0.44362   0.14490   0.29733 
H          H       0.85510   0.29872   0.29733 
H          H       0.29872   0.44362   0.29733 
H          H       0.55638   0.85510   0.29733 
C          C       0.68269   0.48015   0.32943 
H          H       0.14490   0.70128   0.29733 
C          C       0.50240   0.85731   0.18694 
H          H       0.47704   0.84665   0.19881 
C          C       0.51921   0.45731   0.77664 
C          C       0.54269   0.06190   0.77664 
C          C       0.93810   0.48079   0.77664 
C          C       0.48079   0.54269   0.77664 
C          C       0.45731   0.93810   0.77664 
C          C       0.06190   0.51921   0.77664 
C          C       0.54848   0.48873   0.75097 
C          C       0.51127   0.05975   0.75097 
C          C       0.94025   0.45152   0.75097 
C          C       0.45152   0.51127   0.75097 
C          C       0.48873   0.94025   0.75097 
C          C       0.05975   0.54848   0.75097 
C          C       0.54567   0.51702   0.73235 
C          C       0.48298   0.02865   0.73235 
C          C       0.97135   0.45433   0.73235 
C          C       0.45433   0.48298   0.73235 
C          C       0.51702   0.97135   0.73235 
C          C       0.02865   0.54567   0.73235 
C          C       0.51423   0.51531   0.75736 
C          C       0.48469   0.99892   0.75736 
C          C       0.00108   0.48577   0.75736 
C          C       0.48577   0.48469   0.75736 
C          C       0.51531   0.00108   0.75736 
C          C       0.99892   0.51423   0.75736 
C          C       0.48840   0.45547   0.78332 
C          C       0.54453   0.03293   0.78332 
C          C       0.96707   0.51160   0.78332 
C          C       0.51160   0.54453   0.78332 
C          C       0.45547   0.96707   0.78332 
C          C       0.03293   0.48840   0.78332 
C          C       0.46162   0.42495   0.83391 
C          C       0.57505   0.03667   0.83391 
C          C       0.96333   0.53838   0.83391 
C          C       0.53838   0.57505   0.83391 
C          C       0.42495   0.96333   0.83391 
C          C       0.03667   0.46162   0.83391 
C          C       0.46365   0.39707   0.84764 
C          C       0.60293   0.06658   0.84764 
C          C       0.93342   0.53635   0.84764 
C          C       0.53635   0.60293   0.84764 
C          C       0.39707   0.93342   0.84764 
C          C       0.06658   0.46365   0.84764 
C          C       0.49352   0.39827   0.81546 
C          C       0.60173   0.09525   0.81546 
C          C       0.90475   0.50648   0.81546 
C          C       0.50648   0.60173   0.81546 
C          C       0.39827   0.90475   0.81546 
C          C       0.09525   0.49352   0.81546 
C          C       0.52098   0.42870   0.79043 
C          C       0.57130   0.09228   0.79043 
C          C       0.90772   0.47902   0.79043 
C          C       0.47902   0.57130   0.79043 
C          C       0.42870   0.90772   0.79043 
C          C       0.09228   0.52098   0.79043 
C          C       0.57941   0.49144   0.74624 
C          C       0.50856   0.08797   0.74624 
C          C       0.91203   0.42059   0.74624 
C          C       0.42059   0.50856   0.74624 
C          C       0.49144   0.91203   0.74624 
C          C       0.08797   0.57941   0.74624 
C          C       0.60752   0.52094   0.71139 
C          C       0.47906   0.08658   0.71139 
C          C       0.91342   0.39248   0.71139 
C          C       0.39248   0.47906   0.71139 
C          C       0.52094   0.91342   0.71139 
C          C       0.08658   0.60752   0.71139 
C          C       0.39598   0.45204   0.83294 
C          C       0.54796   0.94394   0.83294 
C          C       0.05606   0.60402   0.83294 
C          C       0.60402   0.54796   0.83294 
C          C       0.45204   0.05606   0.83294 
C          C       0.94394   0.39598   0.83294 
C          C       0.42599   0.45429   0.82507 
C          C       0.54571   0.97170   0.82507 
C          C       0.02830   0.57401   0.82507 
C          C       0.57401   0.54571   0.82507 
C          C       0.45429   0.02830   0.82507 
C          C       0.97170   0.42599   0.82507 
N          N       0.50204   0.62910   0.82195 
N          N       0.37090   0.87294   0.82195 
N          N       0.12706   0.49796   0.82195 
N          N       0.49796   0.37090   0.82195 
N          N       0.62910   0.12706   0.82195 
N          N       0.87294   0.50204   0.82195 
N          N       0.63940   0.52579   0.72588 
N          N       0.47421   0.11361   0.72588 
N          N       0.88639   0.36060   0.72588 
N          N       0.36060   0.47421   0.72588 
N          N       0.52579   0.88639   0.72588 
N          N       0.11361   0.63940   0.72588 
C          C       0.14269   0.64509   0.68694 
C          C       0.35491   0.49760   0.81306 
C          C       0.64509   0.50240   0.81306 
C          C       0.49760   0.14269   0.81306 
C          C       0.85731   0.35491   0.81306 
C          C       0.67775   0.50633   0.70851 
C          C       0.49367   0.17142   0.70851 
C          C       0.82858   0.32225   0.70851 
C          C       0.32225   0.49367   0.70851 
C          C       0.50633   0.82858   0.70851 
C          C       0.17142   0.67775   0.70851 
C          C       0.52569   0.65747   0.77298 
C          C       0.34253   0.86822   0.77298 
C          C       0.13178   0.47431   0.77298 
C          C       0.47431   0.34253   0.77298 
C          C       0.65747   0.13178   0.77298 
C          C       0.86822   0.52569   0.77298 
C          C       0.52210   0.68655   0.77318 
C          C       0.31345   0.83555   0.77318 
C          C       0.16445   0.47790   0.77318 
C          C       0.47790   0.31345   0.77318 
C          C       0.68655   0.16445   0.77318 
C          C       0.83555   0.52210   0.77318 
C          C       0.54858   0.71694   0.72524 
C          C       0.28306   0.83164   0.72524 
C          C       0.16836   0.45142   0.72524 
C          C       0.45142   0.28306   0.72524 
C          C       0.71694   0.16836   0.72524 
C          C       0.83164   0.54858   0.72524 
C          C       0.54568   0.74455   0.71898 
C          C       0.25545   0.80113   0.71898 
C          C       0.19887   0.45432   0.71898 
C          C       0.45432   0.25545   0.71898 
C          C       0.74455   0.19887   0.71898 
C          C       0.80113   0.54568   0.71898 
C          C       0.48955   0.71258   0.80657 
C          C       0.28742   0.77697   0.80657 
C          C       0.22303   0.51045   0.80657 
C          C       0.51045   0.28742   0.80657 
C          C       0.71258   0.22303   0.80657 
C          C       0.77697   0.48955   0.80657 
C          C       0.49254   0.68504   0.81530 
C          C       0.31496   0.80750   0.81530 
C          C       0.19250   0.50746   0.81530 
C          C       0.50746   0.31496   0.81530 
C          C       0.68504   0.19250   0.81530 
C          C       0.80750   0.49254   0.81530 
C          C       0.31731   0.51985   0.82943 
C          C       0.48015   0.79746   0.82943 
C          C       0.20254   0.68269   0.82943 
C          C       0.51985   0.20254   0.82943 
C          C       0.79746   0.31731   0.82943 
C          C       0.28689   0.51686   0.81110 
C          C       0.48314   0.77003   0.81110 
C          C       0.22997   0.71311   0.81110 
C          C       0.71311   0.48314   0.81110 
C          C       0.51686   0.22997   0.81110 
C          C       0.77003   0.28689   0.81110 
C          C       0.73517   0.53880   0.78180 
C          C       0.46120   0.19637   0.78180 
C          C       0.80363   0.26483   0.78180 
C          C       0.26483   0.46120   0.78180 
C          C       0.53880   0.80363   0.78180 
C          C       0.19637   0.73517   0.78180 
C          C       0.70467   0.53571   0.76582 
C          C       0.46429   0.16896   0.76582 
C          C       0.83104   0.29533   0.76582 
C          C       0.29533   0.46429   0.76582 
C          C       0.53571   0.83104   0.76582 
C          C       0.16896   0.70467   0.76582 
C          C       0.51262   0.77247   0.74385 
C          C       0.22753   0.74015   0.74385 
C          C       0.25985   0.48738   0.74385 
C          C       0.48738   0.22753   0.74385 
C          C       0.77247   0.25985   0.74385 
C          C       0.74015   0.51262   0.74385 
C          C       0.51599   0.74297   0.75775 
C          C       0.25703   0.77302   0.75775 
C          C       0.22698   0.48401   0.75775 
C          C       0.48401   0.25703   0.75775 
C          C       0.74297   0.22698   0.75775 
C          C       0.77302   0.51599   0.75775 
H          H       0.43847   0.42316   0.87099 
H          H       0.57684   0.01531   0.87099 
H          H       0.98469   0.56153   0.87099 
H          H       0.56153   0.57684   0.87099 
H          H       0.42316   0.98469   0.87099 
H          H       0.01531   0.43847   0.87099 
H          H       0.44215   0.37423   0.88870 
H          H       0.62577   0.06792   0.88870 
H          H       0.93208   0.55785   0.88870 
H          H       0.55785   0.62577   0.88870 
H          H       0.37423   0.93208   0.88870 
H          H       0.06792   0.44215   0.88870 
H          H       0.54434   0.42964   0.77629 
H          H       0.57036   0.11470   0.77629 
H          H       0.88530   0.45566   0.77629 
H          H       0.45566   0.57036   0.77629 
H          H       0.42964   0.88530   0.77629 
H          H       0.11470   0.54434   0.77629 
H          H       0.58177   0.47008   0.77446 
H          H       0.52992   0.11169   0.77446 
H          H       0.88831   0.41823   0.77446 
H          H       0.41823   0.52992   0.77446 
H          H       0.47008   0.88831   0.77446 
H          H       0.11169   0.58177   0.77446 
H          H       0.37469   0.42933   0.87741 
H          H       0.57067   0.94536   0.87741 
H          H       0.05464   0.62531   0.87741 
H          H       0.62531   0.57067   0.87741 
H          H       0.42933   0.05464   0.87741 
H          H       0.94536   0.37469   0.87741 
H          H       0.42774   0.43330   0.87099 
H          H       0.56670   0.99444   0.87099 
H          H       0.00556   0.57226   0.87099 
H          H       0.57226   0.56670   0.87099 
H          H       0.43330   0.00556   0.87099 
H          H       0.99444   0.42774   0.87099 
H          H       0.14756   0.62577   0.63296 
H          H       0.37423   0.52179   0.86705 
H          H       0.62577   0.47821   0.86705 
H          H       0.52179   0.14756   0.86705 
H          H       0.85244   0.37423   0.86705 
H          H       0.54974   0.66124   0.72338 
H          H       0.33876   0.88850   0.72338 
H          H       0.11150   0.45026   0.72338 
H          H       0.45026   0.33876   0.72338 
H          H       0.66124   0.11150   0.72338 
H          H       0.88850   0.54974   0.72338 
H          H       0.57197   0.71883   0.69124 
H          H       0.42803   0.28117   0.80876 
H          H       0.71883   0.14686   0.80876 
H          H       0.85314   0.57197   0.80876 
H          H       0.28117   0.85314   0.80876 
H          H       0.14686   0.42803   0.80876 
H          H       0.56679   0.76778   0.67896 
H          H       0.43321   0.23222   0.82104 
H          H       0.76778   0.20099   0.82104 
H          H       0.79901   0.56679   0.82104 
H          H       0.23222   0.79901   0.82104 
H          H       0.20099   0.43321   0.82104 
H          H       0.46612   0.71057   0.84032 
H          H       0.28943   0.75555   0.84032 
H          H       0.24445   0.53388   0.84032 
H          H       0.53388   0.28943   0.84032 
H          H       0.71057   0.24445   0.84032 
H          H       0.75555   0.46612   0.84032 
H          H       0.47163   0.66159   0.85419 
H          H       0.33841   0.81004   0.85419 
H          H       0.18996   0.52837   0.85419 
H          H       0.52837   0.33841   0.85419 
H          H       0.66159   0.18996   0.85419 
H          H       0.81004   0.47163   0.85419 
H          H       0.33791   0.54307   0.87499 
H          H       0.45693   0.79484   0.87499 
H          H       0.20516   0.66209   0.87499 
H          H       0.66209   0.45693   0.87499 
H          H       0.54307   0.20516   0.87499 
H          H       0.79484   0.33791   0.87499 
H          H       0.28388   0.53773   0.84372 
H          H       0.46227   0.74615   0.84372 
H          H       0.25385   0.71612   0.84372 
H          H       0.71612   0.46227   0.84372 
H          H       0.53773   0.25385   0.84372 
H          H       0.74615   0.28388   0.84372 
H          H       0.75568   0.56205   0.82740 
H          H       0.43795   0.19363   0.82740 
H          H       0.80637   0.24432   0.82740 
H          H       0.24432   0.43795   0.82740 
H          H       0.56205   0.80637   0.82740 
H          H       0.19363   0.75568   0.82740 
H          H       0.70128   0.55638   0.79733 
H          H       0.44362   0.14490   0.79733 
H          H       0.85510   0.29872   0.79733 
H          H       0.29872   0.44362   0.79733 
H          H       0.55638   0.85510   0.79733 
C          C       0.68269   0.48015   0.82943 
H          H       0.14490   0.70128   0.79733 
C          C       0.50240   0.85731   0.68694 
H          H       0.47704   0.84665   0.69881 
