data_crystal

_cell_length_a    17.50300
_cell_length_b    17.50300
_cell_length_c    6.86360
_cell_angle_alpha 90.00000
_cell_angle_beta  90.00000
_cell_angle_gamma 120.00000

_space_group_name_Hall 'P 1'
_space_group_name_H-M_alt  'P 1'

loop_
_symmetry_equiv_pos_as_xyz
'x,y,z' 

loop_
_atom_site_label
_atom_site_type_symbol
_atom_site_fract_x
_atom_site_fract_y
_atom_site_fract_z
N          N       0.03915   0.08725   0.25000 
N          N       0.91275   0.95190   0.25000 
N          N       0.04810   0.96085   0.25000 
H          H       0.19070   0.16545   0.25000 
H          H       0.83455   0.02525   0.25000 
H          H       0.97475   0.80930   0.25000 
C          C       0.21960   0.05960   0.25000 
C          C       0.94040   0.16000   0.25000 
C          C       0.84000   0.78040   0.25000 
C          C       0.17151   0.09717   0.25000 
C          C       0.90283   0.07434   0.25000 
C          C       0.92566   0.82849   0.25000 
C          C       0.30950   0.11312   0.25000 
C          C       0.88688   0.19638   0.25000 
C          C       0.80362   0.69050   0.25000 
C          C       0.34659   0.20447   0.25000 
C          C       0.79553   0.14212   0.25000 
C          C       0.85788   0.65341   0.25000 
C          C       0.43160   0.25487   0.25000 
C          C       0.74513   0.17673   0.25000 
C          C       0.82327   0.56840   0.25000 
C          C       0.48522   0.21766   0.25000 
C          C       0.78234   0.26756   0.25000 
C          C       0.73244   0.51478   0.25000 
C          C       0.44772   0.12440   0.25000 
C          C       0.87560   0.32332   0.25000 
C          C       0.67668   0.55228   0.25000 
C          C       0.35915   0.07241   0.25000 
C          C       0.92759   0.28674   0.25000 
C          C       0.71326   0.64085   0.25000 
C          C       0.08517   0.04727   0.25000 
C          C       0.95273   0.03790   0.25000 
C          C       0.96210   0.91483   0.25000 
H          H       0.19247   0.98849   0.25000 
H          H       0.01151   0.20398   0.25000 
H          H       0.79602   0.80753   0.25000 
H          H       0.32978   0.00116   0.25000 
H          H       0.99884   0.32862   0.25000 
H          H       0.67138   0.67022   0.25000 
H          H       0.44873   0.32271   0.25000 
H          H       0.67729   0.12602   0.25000 
H          H       0.87398   0.55127   0.25000 
H          H       0.48148   0.08731   0.25000 
H          H       0.91269   0.39417   0.25000 
H          H       0.60583   0.51852   0.25000 
H          H       0.31449   0.24301   0.25000 
H          H       0.75699   0.07148   0.25000 
H          H       0.92852   0.68551   0.25000 
C          C       0.57766   0.27707   0.25000 
C          C       0.72293   0.30059   0.25000 
C          C       0.69941   0.42234   0.25000 
C          C       0.61185   0.36653   0.25000 
C          C       0.63347   0.24532   0.25000 
C          C       0.75468   0.38815   0.25000 
H          H       0.57245   0.39445   0.25000 
H          H       0.60555   0.17800   0.25000 
H          H       0.82200   0.42755   0.25000 
N          N       0.03915   0.08725   0.75000 
N          N       0.91275   0.95190   0.75000 
N          N       0.04810   0.96085   0.75000 
H          H       0.19070   0.16545   0.75000 
H          H       0.83455   0.02525   0.75000 
H          H       0.97475   0.80930   0.75000 
C          C       0.21960   0.05960   0.75000 
C          C       0.94040   0.16000   0.75000 
C          C       0.84000   0.78040   0.75000 
C          C       0.17151   0.09717   0.75000 
C          C       0.90283   0.07434   0.75000 
C          C       0.92566   0.82849   0.75000 
C          C       0.30950   0.11312   0.75000 
C          C       0.88688   0.19638   0.75000 
C          C       0.80362   0.69050   0.75000 
C          C       0.34659   0.20447   0.75000 
C          C       0.79553   0.14212   0.75000 
C          C       0.85788   0.65341   0.75000 
C          C       0.43160   0.25487   0.75000 
C          C       0.74513   0.17673   0.75000 
C          C       0.82327   0.56840   0.75000 
C          C       0.48522   0.21766   0.75000 
C          C       0.78234   0.26756   0.75000 
C          C       0.73244   0.51478   0.75000 
C          C       0.44772   0.12440   0.75000 
C          C       0.87560   0.32332   0.75000 
C          C       0.67668   0.55228   0.75000 
C          C       0.35915   0.07241   0.75000 
C          C       0.92759   0.28674   0.75000 
C          C       0.71326   0.64085   0.75000 
C          C       0.08517   0.04727   0.75000 
C          C       0.95273   0.03790   0.75000 
C          C       0.96210   0.91483   0.75000 
H          H       0.19247   0.98849   0.75000 
H          H       0.01151   0.20398   0.75000 
H          H       0.79602   0.80753   0.75000 
H          H       0.32978   0.00116   0.75000 
H          H       0.99884   0.32862   0.75000 
H          H       0.67138   0.67022   0.75000 
H          H       0.44873   0.32271   0.75000 
H          H       0.67729   0.12602   0.75000 
H          H       0.87398   0.55127   0.75000 
H          H       0.48148   0.08731   0.75000 
H          H       0.91269   0.39417   0.75000 
H          H       0.60583   0.51852   0.75000 
H          H       0.31449   0.24301   0.75000 
H          H       0.75699   0.07148   0.75000 
H          H       0.92852   0.68551   0.75000 
C          C       0.57766   0.27707   0.75000 
C          C       0.72293   0.30059   0.75000 
C          C       0.69941   0.42234   0.75000 
C          C       0.61185   0.36653   0.75000 
C          C       0.63347   0.24532   0.75000 
C          C       0.75468   0.38815   0.75000 
H          H       0.57245   0.39445   0.75000 
H          H       0.60555   0.17800   0.75000 
H          H       0.82200   0.42755   0.75000 
