data_crystal

_cell_length_a    21.56500
_cell_length_b    21.56500
_cell_length_c    6.70400
_cell_angle_alpha 90.00000
_cell_angle_beta  90.00000
_cell_angle_gamma 120.00000

_space_group_name_Hall 'P 1'
_space_group_name_H-M_alt  'P 1'

loop_
_symmetry_equiv_pos_as_xyz
'x,y,z' 

loop_
_atom_site_label
_atom_site_type_symbol
_atom_site_fract_x
_atom_site_fract_y
_atom_site_fract_z
N          N       0.68787   0.40311   0.25000 
N          N       0.59689   0.28476   0.25000 
N          N       0.71524   0.31213   0.25000 
N          N       0.31213   0.59689   0.25000 
N          N       0.40311   0.71524   0.25000 
N          N       0.28476   0.68787   0.25000 
H          H       0.82106   0.48866   0.25000 
H          H       0.51134   0.33240   0.25000 
H          H       0.66760   0.17894   0.25000 
H          H       0.17894   0.51134   0.25000 
H          H       0.48866   0.66760   0.25000 
H          H       0.33240   0.82106   0.25000 
C          C       0.85391   0.41066   0.25000 
C          C       0.58934   0.44325   0.25000 
C          C       0.55675   0.14609   0.25000 
C          C       0.14609   0.58934   0.25000 
C          C       0.41066   0.55675   0.25000 
C          C       0.44325   0.85391   0.25000 
C          C       0.80795   0.43350   0.25000 
C          C       0.56650   0.37445   0.25000 
C          C       0.62555   0.19205   0.25000 
C          C       0.19205   0.56650   0.25000 
C          C       0.43350   0.62555   0.25000 
C          C       0.37445   0.80795   0.25000 
C          C       0.92806   0.45782   0.25000 
C          C       0.54218   0.47024   0.25000 
C          C       0.52976   0.07194   0.25000 
C          C       0.07194   0.54218   0.25000 
C          C       0.45782   0.52976   0.25000 
C          C       0.47024   0.92806   0.25000 
C          C       0.95803   0.53246   0.25000 
C          C       0.46754   0.42557   0.25000 
C          C       0.57443   0.04197   0.25000 
C          C       0.04197   0.46754   0.25000 
C          C       0.53246   0.57443   0.25000 
C          C       0.42557   0.95803   0.25000 
C          C       0.03019   0.57443   0.25000 
C          C       0.42557   0.45576   0.25000 
C          C       0.54424   0.96981   0.25000 
C          C       0.96981   0.42557   0.25000 
C          C       0.57443   0.54424   0.25000 
C          C       0.45576   0.03019   0.25000 
C          C       0.73570   0.38185   0.25000 
C          C       0.61815   0.35385   0.25000 
C          C       0.64615   0.26430   0.25000 
C          C       0.26430   0.61815   0.25000 
C          C       0.38185   0.64615   0.25000 
C          C       0.35385   0.73570   0.25000 
H          H       0.83660   0.35392   0.25000 
H          H       0.64608   0.48268   0.25000 
H          H       0.51732   0.16340   0.25000 
H          H       0.16340   0.64608   0.25000 
H          H       0.35392   0.51732   0.25000 
H          H       0.48268   0.83660   0.25000 
H          H       0.94675   0.36786   0.25000 
H          H       0.63214   0.57889   0.25000 
H          H       0.42111   0.05325   0.25000 
H          H       0.05325   0.63214   0.25000 
H          H       0.36786   0.42111   0.25000 
H          H       0.57889   0.94675   0.25000 
H          H       0.07193   0.43991   0.25000 
H          H       0.56009   0.63202   0.25000 
H          H       0.36798   0.92807   0.25000 
H          H       0.92807   0.56009   0.25000 
H          H       0.43991   0.36798   0.25000 
H          H       0.63202   0.07193   0.25000 
N          N       0.68787   0.40311   0.75000 
N          N       0.59689   0.28476   0.75000 
N          N       0.71524   0.31213   0.75000 
N          N       0.31213   0.59689   0.75000 
N          N       0.40311   0.71524   0.75000 
N          N       0.28476   0.68787   0.75000 
H          H       0.82106   0.48866   0.75000 
H          H       0.51134   0.33240   0.75000 
H          H       0.66760   0.17894   0.75000 
H          H       0.17894   0.51134   0.75000 
H          H       0.48866   0.66760   0.75000 
H          H       0.33240   0.82106   0.75000 
C          C       0.85391   0.41066   0.75000 
C          C       0.58934   0.44325   0.75000 
C          C       0.55675   0.14609   0.75000 
C          C       0.14609   0.58934   0.75000 
C          C       0.41066   0.55675   0.75000 
C          C       0.44325   0.85391   0.75000 
C          C       0.80795   0.43350   0.75000 
C          C       0.56650   0.37445   0.75000 
C          C       0.62555   0.19205   0.75000 
C          C       0.19205   0.56650   0.75000 
C          C       0.43350   0.62555   0.75000 
C          C       0.37445   0.80795   0.75000 
C          C       0.92806   0.45782   0.75000 
C          C       0.54218   0.47024   0.75000 
C          C       0.52976   0.07194   0.75000 
C          C       0.07194   0.54218   0.75000 
C          C       0.45782   0.52976   0.75000 
C          C       0.47024   0.92806   0.75000 
C          C       0.95803   0.53246   0.75000 
C          C       0.46754   0.42557   0.75000 
C          C       0.57443   0.04197   0.75000 
C          C       0.04197   0.46754   0.75000 
C          C       0.53246   0.57443   0.75000 
C          C       0.42557   0.95803   0.75000 
C          C       0.03019   0.57443   0.75000 
C          C       0.42557   0.45576   0.75000 
C          C       0.54424   0.96981   0.75000 
C          C       0.96981   0.42557   0.75000 
C          C       0.57443   0.54424   0.75000 
C          C       0.45576   0.03019   0.75000 
C          C       0.73570   0.38185   0.75000 
C          C       0.61815   0.35385   0.75000 
C          C       0.64615   0.26430   0.75000 
C          C       0.26430   0.61815   0.75000 
C          C       0.38185   0.64615   0.75000 
C          C       0.35385   0.73570   0.75000 
H          H       0.83660   0.35392   0.75000 
H          H       0.64608   0.48268   0.75000 
H          H       0.51732   0.16340   0.75000 
H          H       0.16340   0.64608   0.75000 
H          H       0.35392   0.51732   0.75000 
H          H       0.48268   0.83660   0.75000 
H          H       0.94675   0.36786   0.75000 
H          H       0.63214   0.57889   0.75000 
H          H       0.42111   0.05325   0.75000 
H          H       0.05325   0.63214   0.75000 
H          H       0.36786   0.42111   0.75000 
H          H       0.57889   0.94675   0.75000 
H          H       0.07193   0.43991   0.75000 
H          H       0.56009   0.63202   0.75000 
H          H       0.36798   0.92807   0.75000 
H          H       0.92807   0.56009   0.75000 
H          H       0.43991   0.36798   0.75000 
H          H       0.63202   0.07193   0.75000 
