data_crystal

_cell_length_a    24.37400
_cell_length_b    26.21340
_cell_length_c    8.05740
_cell_angle_alpha 90.00000
_cell_angle_beta  72.11270
_cell_angle_gamma 90.00000

_space_group_name_Hall 'P 1'
_space_group_name_H-M_alt  'P 1'

loop_
_symmetry_equiv_pos_as_xyz
'x,y,z' 

loop_
_atom_site_label
_atom_site_type_symbol
_atom_site_fract_x
_atom_site_fract_y
_atom_site_fract_z
C          C       0.48175   0.20658   0.27825 
C          C       0.51825   0.70658   0.22175 
N          N       0.48086   0.16064   0.23808 
N          N       0.51914   0.66064   0.26193 
C          C       0.39287   0.04898   0.19273 
C          C       0.60713   0.54898   0.30728 
C          C       0.43805   0.08218   0.18340 
C          C       0.56195   0.58218   0.31660 
C          C       0.43463   0.12863   0.26075 
C          C       0.56537   0.62863   0.23925 
C          C       0.38508   0.13927   0.35531 
C          C       0.61492   0.63927   0.14469 
C          C       0.34049   0.10555   0.36673 
C          C       0.65951   0.60555   0.13328 
C          C       0.12927   0.09300   0.14229 
C          C       0.87073   0.59300   0.35771 
C          C       0.07980   0.12098   0.15860 
C          C       0.92020   0.62098   0.34140 
C          C       0.03296   0.10349   0.25205 
C          C       0.96704   0.60349   0.24795 
C          C       0.03684   0.05682   0.32489 
C          C       0.96316   0.55682   0.17511 
C          C       0.08691   0.02947   0.31194 
C          C       0.91309   0.52947   0.18806 
C          C       0.37070   0.74719   0.35703 
C          C       0.62930   0.24719   0.14297 
C          C       0.42018   0.71922   0.34091 
C          C       0.57982   0.21922   0.15909 
C          C       0.46704   0.73670   0.24751 
C          C       0.53296   0.23670   0.25249 
C          C       0.46317   0.78334   0.17452 
C          C       0.53683   0.28334   0.32548 
C          C       0.41309   0.81069   0.18729 
C          C       0.58691   0.31069   0.31272 
C          C       0.10712   0.79124   0.30661 
C          C       0.89288   0.29124   0.19340 
C          C       0.06195   0.75804   0.31615 
C          C       0.93805   0.25804   0.18385 
C          C       0.06535   0.71157   0.23897 
C          C       0.93465   0.21157   0.26103 
C          C       0.11488   0.70089   0.14435 
C          C       0.88512   0.20089   0.35565 
C          C       0.15946   0.73461   0.13272 
C          C       0.84054   0.23461   0.36728 
C          C       0.34302   0.06014   0.28422 
C          C       0.65698   0.56014   0.21578 
C          C       0.13425   0.04716   0.22101 
C          C       0.86575   0.54716   0.27899 
C          C       0.36573   0.79302   0.27820 
C          C       0.63427   0.29302   0.22181 
C          C       0.15695   0.78005   0.21506 
C          C       0.84305   0.28005   0.28494 
C          C       0.29274   0.02743   0.27770 
C          C       0.70726   0.52743   0.22230 
C          C       0.23912   0.04850   0.25199 
C          C       0.76088   0.54850   0.24802 
C          C       0.18958   0.02102   0.22539 
C          C       0.81042   0.52102   0.27461 
C          C       0.19471   0.96911   0.21412 
C          C       0.80529   0.46911   0.28589 
C          C       0.14855   0.93899   0.16259 
C          C       0.85145   0.43899   0.33741 
C          C       0.15281   0.88897   0.16149 
C          C       0.84719   0.38897   0.33851 
C          C       0.35144   0.90119   0.33650 
C          C       0.64856   0.40119   0.16350 
C          C       0.34717   0.95122   0.33761 
C          C       0.65283   0.45122   0.16239 
C          C       0.29642   0.97541   0.28699 
C          C       0.70358   0.47541   0.21302 
C          C       0.24777   0.94637   0.25000 
C          C       0.75223   0.44637   0.25000 
C          C       0.26087   0.79168   0.24710 
C          C       0.73913   0.29168   0.25290 
C          C       0.31041   0.81916   0.27370 
C          C       0.68959   0.31916   0.22631 
C          C       0.30528   0.87107   0.28494 
C          C       0.69472   0.37107   0.21506 
C          C       0.25222   0.89381   0.24903 
C          C       0.74778   0.39381   0.25098 
C          C       0.20357   0.86478   0.21209 
C          C       0.79643   0.36478   0.28791 
C          C       0.20724   0.81276   0.22142 
C          C       0.79276   0.31276   0.27858 
N          N       0.98087   0.17956   0.23812 
N          N       0.01913   0.67956   0.26188 
C          C       0.98176   0.13360   0.27804 
C          C       0.01824   0.63360   0.22196 
H          H       0.44414   0.22515   0.33631 
H          H       0.55586   0.72515   0.16368 
H          H       0.39619   0.01470   0.12212 
H          H       0.60381   0.51470   0.37789 
H          H       0.47600   0.07262   0.10945 
H          H       0.52400   0.57262   0.39054 
H          H       0.38081   0.17409   0.42250 
H          H       0.61919   0.67409   0.07750 
H          H       0.30288   0.11513   0.44293 
H          H       0.69712   0.61513   0.05707 
H          H       0.16468   0.10766   0.06680 
H          H       0.83532   0.60766   0.43320 
H          H       0.07767   0.15699   0.09816 
H          H       0.92233   0.65699   0.40185 
H          H       0.00117   0.04222   0.39906 
H          H       0.99883   0.54222   0.10094 
H          H       0.08943   0.99473   0.37960 
H          H       0.91057   0.49473   0.12041 
H          H       0.33526   0.73255   0.43248 
H          H       0.66474   0.23255   0.06753 
H          H       0.42229   0.68322   0.40147 
H          H       0.57771   0.18322   0.09853 
H          H       0.49885   0.79793   0.10036 
H          H       0.50115   0.29793   0.39964 
H          H       0.41058   0.84542   0.11954 
H          H       0.58942   0.34542   0.38046 
H          H       0.10381   0.82554   0.37708 
H          H       0.89619   0.32554   0.12292 
H          H       0.02402   0.76762   0.39014 
H          H       0.97598   0.26762   0.10987 
H          H       0.11914   0.66605   0.07728 
H          H       0.88086   0.16605   0.42272 
H          H       0.19706   0.72500   0.05647 
H          H       0.80294   0.22500   0.44353 
H          H       0.23571   0.08866   0.25298 
H          H       0.76429   0.58866   0.24702 
H          H       0.10882   0.95560   0.12100 
H          H       0.89118   0.45560   0.37900 
H          H       0.11636   0.86769   0.11884 
H          H       0.88364   0.36769   0.38116 
H          H       0.39116   0.88458   0.37814 
H          H       0.60884   0.38458   0.12187 
H          H       0.38362   0.97249   0.38033 
H          H       0.61638   0.47249   0.11967 
H          H       0.26428   0.75152   0.24611 
H          H       0.73572   0.25152   0.25389 
H          H       0.94416   0.11501   0.33607 
H          H       0.05584   0.61501   0.16394 
C          C       0.48175   0.20658   0.77825 
C          C       0.51825   0.70658   0.72175 
N          N       0.48086   0.16064   0.73808 
N          N       0.51914   0.66064   0.76193 
C          C       0.39287   0.04898   0.69273 
C          C       0.60713   0.54898   0.80728 
C          C       0.43805   0.08218   0.68340 
C          C       0.56195   0.58218   0.81660 
C          C       0.43463   0.12863   0.76075 
C          C       0.56537   0.62863   0.73925 
C          C       0.38508   0.13927   0.85531 
C          C       0.61492   0.63927   0.64469 
C          C       0.34049   0.10555   0.86673 
C          C       0.65951   0.60555   0.63328 
C          C       0.12927   0.09300   0.64229 
C          C       0.87073   0.59300   0.85771 
C          C       0.07980   0.12098   0.65860 
C          C       0.92020   0.62098   0.84140 
C          C       0.03296   0.10349   0.75206 
C          C       0.96704   0.60349   0.74795 
C          C       0.03684   0.05682   0.82489 
C          C       0.96316   0.55682   0.67511 
C          C       0.08691   0.02947   0.81195 
C          C       0.91309   0.52947   0.68805 
C          C       0.37070   0.74719   0.85703 
C          C       0.62930   0.24719   0.64297 
C          C       0.42018   0.71922   0.84091 
C          C       0.57982   0.21922   0.65909 
C          C       0.46704   0.73670   0.74751 
C          C       0.53296   0.23670   0.75249 
C          C       0.46317   0.78334   0.67452 
C          C       0.53683   0.28334   0.82548 
C          C       0.41309   0.81069   0.68729 
C          C       0.58691   0.31069   0.81272 
C          C       0.10712   0.79124   0.80661 
C          C       0.89288   0.29124   0.69339 
C          C       0.06195   0.75804   0.81615 
C          C       0.93805   0.25804   0.68385 
C          C       0.06535   0.71157   0.73897 
C          C       0.93465   0.21157   0.76103 
C          C       0.11488   0.70089   0.64435 
C          C       0.88512   0.20089   0.85565 
C          C       0.15946   0.73461   0.63272 
C          C       0.84054   0.23461   0.86728 
C          C       0.34302   0.06014   0.78422 
C          C       0.65698   0.56014   0.71578 
C          C       0.13425   0.04716   0.72101 
C          C       0.86575   0.54716   0.77899 
C          C       0.36573   0.79302   0.77820 
C          C       0.63427   0.29302   0.72181 
C          C       0.15695   0.78005   0.71506 
C          C       0.84305   0.28005   0.78494 
C          C       0.29274   0.02743   0.77770 
C          C       0.70726   0.52743   0.72230 
C          C       0.23912   0.04850   0.75199 
C          C       0.76088   0.54850   0.74801 
C          C       0.18958   0.02102   0.72539 
C          C       0.81042   0.52102   0.77461 
C          C       0.19471   0.96911   0.71411 
C          C       0.80529   0.46911   0.78589 
C          C       0.14855   0.93899   0.66259 
C          C       0.85145   0.43899   0.83741 
C          C       0.15281   0.88897   0.66149 
C          C       0.84719   0.38897   0.83851 
C          C       0.35144   0.90119   0.83650 
C          C       0.64856   0.40119   0.66350 
C          C       0.34717   0.95122   0.83762 
C          C       0.65283   0.45122   0.66239 
C          C       0.29642   0.97541   0.78699 
C          C       0.70358   0.47541   0.71302 
C          C       0.24777   0.94637   0.75001 
C          C       0.75223   0.44637   0.75000 
C          C       0.26087   0.79168   0.74710 
C          C       0.73913   0.29168   0.75290 
C          C       0.31041   0.81916   0.77370 
C          C       0.68959   0.31916   0.72630 
C          C       0.30528   0.87107   0.78494 
C          C       0.69472   0.37107   0.71506 
C          C       0.25222   0.89381   0.74903 
C          C       0.74778   0.39381   0.75098 
C          C       0.20357   0.86478   0.71209 
C          C       0.79643   0.36478   0.78791 
C          C       0.20724   0.81276   0.72142 
C          C       0.79276   0.31276   0.77858 
N          N       0.98087   0.17956   0.73812 
N          N       0.01913   0.67956   0.76188 
C          C       0.98176   0.13360   0.77804 
C          C       0.01824   0.63360   0.72196 
H          H       0.44414   0.22515   0.83632 
H          H       0.55586   0.72515   0.66368 
H          H       0.39619   0.01470   0.62212 
H          H       0.60381   0.51470   0.87789 
H          H       0.47600   0.07262   0.60945 
H          H       0.52400   0.57262   0.89054 
H          H       0.38081   0.17409   0.92250 
H          H       0.61919   0.67409   0.57750 
H          H       0.30288   0.11513   0.94293 
H          H       0.69712   0.61513   0.55707 
H          H       0.16468   0.10766   0.56680 
H          H       0.83532   0.60766   0.93320 
H          H       0.07767   0.15699   0.59816 
H          H       0.92233   0.65699   0.90185 
H          H       0.00117   0.04222   0.89906 
H          H       0.99883   0.54222   0.60094 
H          H       0.08943   0.99473   0.87960 
H          H       0.91057   0.49473   0.62040 
H          H       0.33526   0.73255   0.93248 
H          H       0.66474   0.23255   0.56753 
H          H       0.42229   0.68322   0.90146 
H          H       0.57771   0.18322   0.59854 
H          H       0.49885   0.79793   0.60037 
H          H       0.50115   0.29793   0.89964 
H          H       0.41058   0.84542   0.61954 
H          H       0.58942   0.34542   0.88046 
H          H       0.10381   0.82554   0.87708 
H          H       0.89619   0.32554   0.62292 
H          H       0.02402   0.76762   0.89014 
H          H       0.97598   0.26762   0.60986 
H          H       0.11914   0.66605   0.57728 
H          H       0.88086   0.16605   0.92272 
H          H       0.19706   0.72500   0.55648 
H          H       0.80294   0.22500   0.94353 
H          H       0.23571   0.08866   0.75298 
H          H       0.76429   0.58866   0.74702 
H          H       0.10882   0.95560   0.62100 
H          H       0.89118   0.45560   0.87900 
H          H       0.11636   0.86769   0.61884 
H          H       0.88364   0.36769   0.88116 
H          H       0.39116   0.88458   0.87814 
H          H       0.60884   0.38458   0.62187 
H          H       0.38362   0.97249   0.88033 
H          H       0.61638   0.47249   0.61967 
H          H       0.26428   0.75152   0.74611 
H          H       0.73572   0.25152   0.75389 
H          H       0.94416   0.11501   0.83606 
H          H       0.05584   0.61501   0.66394 
