data_crystal

_cell_length_a    28.10140
_cell_length_b    29.34250
_cell_length_c    7.77160
_cell_angle_alpha 90.00000
_cell_angle_beta  105.82100
_cell_angle_gamma 90.00000

_space_group_name_Hall 'P 1'
_space_group_name_H-M_alt  'P 1'

loop_
_symmetry_equiv_pos_as_xyz
'x,y,z' 

loop_
_atom_site_label
_atom_site_type_symbol
_atom_site_fract_x
_atom_site_fract_y
_atom_site_fract_z
C          C       0.47096   0.59964   0.28963 
C          C       0.46531   0.55185   0.28691 
C          C       0.57677   0.46880   0.18234 
C          C       0.43306   0.62973   0.31510 
C          C       0.40082   0.65494   0.33089 
C          C       0.36170   0.68521   0.34136 
C          C       0.36391   0.73103   0.29605 
C          C       0.32393   0.75988   0.28971 
C          C       0.28099   0.74281   0.32671 
C          C       0.28000   0.69736   0.37922 
C          C       0.32003   0.66846   0.38542 
N          N       0.23771   0.77022   0.31115 
C          C       0.22746   0.80776   0.22143 
C          C       0.95248   0.09104   0.32087 
C          C       0.95365   0.04408   0.27559 
C          C       0.08944   0.98270   0.27364 
C          C       0.90608   0.11718   0.31173 
C          C       0.89908   0.16060   0.23267 
C          C       0.85581   0.18536   0.22166 
C          C       0.81845   0.16702   0.28799 
C          C       0.82560   0.12428   0.36946 
C          C       0.86942   0.10031   0.38489 
C          C       0.52903   0.40036   0.21032 
C          C       0.53468   0.44815   0.21304 
C          C       0.42322   0.53120   0.31761 
C          C       0.56693   0.37026   0.18485 
C          C       0.59917   0.34505   0.16905 
C          C       0.63830   0.31480   0.15856 
C          C       0.63607   0.26896   0.20374 
C          C       0.67605   0.24012   0.21008 
C          C       0.71901   0.25719   0.17322 
C          C       0.72001   0.30265   0.12084 
C          C       0.67998   0.33156   0.11464 
N          N       0.76230   0.22979   0.18882 
C          C       0.77253   0.19223   0.27847 
C          C       0.04752   0.90896   0.17918 
C          C       0.04635   0.95592   0.22447 
C          C       0.91056   0.01731   0.22642 
C          C       0.09392   0.88282   0.18831 
C          C       0.10093   0.83940   0.26734 
C          C       0.14419   0.81464   0.27831 
C          C       0.18154   0.83298   0.21197 
C          C       0.17440   0.87572   0.13053 
C          C       0.13058   0.89970   0.11514 
C          C       0.55053   0.59221   0.22659 
C          C       0.54560   0.54425   0.22184 
C          C       0.41788   0.48398   0.31337 
C          C       0.59299   0.61536   0.19685 
C          C       0.62756   0.63646   0.17379 
C          C       0.66798   0.66352   0.14939 
C          C       0.65823   0.70405   0.05276 
C          C       0.69716   0.73232   0.03904 
C          C       0.74654   0.72018   0.12203 
C          C       0.75588   0.67951   0.21804 
C          C       0.71693   0.65118   0.23148 
N          N       0.78782   0.74924   0.12211 
C          C       0.78758   0.78418   0.02045 
C          C       0.04211   0.09630   0.36523 
C          C       0.04357   0.04961   0.31951 
C          C       0.91213   0.97157   0.18527 
C          C       0.08583   0.12744   0.39963 
C          C       0.08242   0.16869   0.30647 
C          C       0.12304   0.19809   0.33454 
C          C       0.16802   0.18685   0.45646 
C          C       0.17102   0.14648   0.05391 
C          C       0.13011   0.11748   0.02769 
C          C       0.44946   0.40779   0.27337 
C          C       0.45439   0.45575   0.27810 
C          C       0.58211   0.51602   0.18658 
C          C       0.40700   0.38463   0.30312 
C          C       0.37244   0.36353   0.32620 
C          C       0.33202   0.33648   0.35063 
C          C       0.34178   0.29594   0.44721 
C          C       0.30284   0.26767   0.46098 
C          C       0.25346   0.27982   0.37805 
C          C       0.24412   0.32050   0.28208 
C          C       0.28307   0.34883   0.26861 
N          N       0.21218   0.25077   0.37800 
C          C       0.21243   0.21582   0.47960 
C          C       0.95789   0.90370   0.13485 
C          C       0.95643   0.95039   0.18056 
C          C       0.08787   0.02844   0.31479 
C          C       0.91417   0.87256   0.10045 
C          C       0.91758   0.83131   0.19361 
C          C       0.87696   0.80191   0.16554 
C          C       0.83199   0.81315   0.04360 
C          C       0.82899   0.85352   0.44616 
C          C       0.86989   0.88252   0.47238 
C          C       0.50275   0.52403   0.25233 
C          C       0.51324   0.61921   0.26011 
C          C       0.49724   0.47596   0.24762 
C          C       0.48675   0.38079   0.23984 
C          C       0.99935   0.02340   0.27492 
C          C       0.99690   0.11557   0.36840 
C          C       0.00066   0.97660   0.22514 
C          C       0.00310   0.88444   0.13167 
H          H       0.60573   0.44850   0.15317 
H          H       0.39608   0.74414   0.26150 
H          H       0.32681   0.79513   0.25486 
H          H       0.24753   0.68434   0.41140 
H          H       0.31827   0.63304   0.42189 
H          H       0.25156   0.82067   0.14666 
H          H       0.12572   0.96895   0.28662 
H          H       0.92641   0.17472   0.17388 
H          H       0.85098   0.21839   0.15815 
H          H       0.79786   0.11002   0.42603 
H          H       0.87468   0.06852   0.45476 
H          H       0.39427   0.55150   0.34677 
H          H       0.60390   0.25584   0.23816 
H          H       0.67317   0.20486   0.24480 
H          H       0.75250   0.31569   0.08879 
H          H       0.68176   0.36699   0.07830 
H          H       0.74841   0.17931   0.35315 
H          H       0.87428   0.03106   0.21344 
H          H       0.07360   0.82527   0.32614 
H          H       0.14901   0.78160   0.34179 
H          H       0.20214   0.88999   0.07395 
H          H       0.12532   0.93149   0.04529 
H          H       0.38506   0.46963   0.33929 
H          H       0.62042   0.71406   0.49006 
H          H       0.68820   0.76382   0.46706 
H          H       0.79359   0.67044   0.28547 
H          H       0.72484   0.62039   0.30966 
H          H       0.75472   0.79333   0.41857 
H          H       0.87754   0.95344   0.15526 
H          H       0.04863   0.17750   0.20805 
H          H       0.11989   0.22898   0.25737 
H          H       0.20501   0.13750   0.15115 
H          H       0.13308   0.08708   0.10670 
H          H       0.61493   0.53037   0.16065 
H          H       0.37959   0.28592   0.00986 
H          H       0.31181   0.23617   0.03291 
H          H       0.20641   0.32958   0.21471 
H          H       0.27516   0.37963   0.19047 
H          H       0.24530   0.20665   0.08141 
H          H       0.12246   0.04656   0.34482 
H          H       0.95138   0.82250   0.29203 
H          H       0.88011   0.77101   0.24269 
H          H       0.79500   0.86250   0.34891 
H          H       0.86692   0.91292   0.39338 
H          H       0.51699   0.65602   0.26192 
H          H       0.48300   0.34397   0.23803 
H          H       0.99628   0.15094   0.40715 
H          H       0.00372   0.84906   0.09291 
C          C       0.47096   0.59964   0.78963 
C          C       0.46531   0.55185   0.78691 
C          C       0.57677   0.46880   0.68234 
C          C       0.43306   0.62973   0.81510 
C          C       0.40082   0.65494   0.83089 
C          C       0.36170   0.68521   0.84137 
C          C       0.36391   0.73103   0.79605 
C          C       0.32393   0.75988   0.78971 
C          C       0.28099   0.74281   0.82671 
C          C       0.28000   0.69736   0.87922 
C          C       0.32003   0.66846   0.88542 
N          N       0.23771   0.77022   0.81115 
C          C       0.22746   0.80776   0.72142 
C          C       0.95248   0.09104   0.82088 
C          C       0.95365   0.04408   0.77559 
C          C       0.08944   0.98270   0.77364 
C          C       0.90608   0.11718   0.81173 
C          C       0.89908   0.16060   0.73267 
C          C       0.85581   0.18536   0.72166 
C          C       0.81845   0.16702   0.78799 
C          C       0.82560   0.12428   0.86946 
C          C       0.86942   0.10031   0.88489 
C          C       0.52903   0.40036   0.71032 
C          C       0.53468   0.44815   0.71303 
C          C       0.42322   0.53120   0.81761 
C          C       0.56693   0.37026   0.68484 
C          C       0.59917   0.34505   0.66905 
C          C       0.63830   0.31480   0.65856 
C          C       0.63607   0.26896   0.70374 
C          C       0.67605   0.24012   0.71007 
C          C       0.71901   0.25719   0.67322 
C          C       0.72001   0.30265   0.62084 
C          C       0.67998   0.33156   0.61464 
N          N       0.76230   0.22979   0.68882 
C          C       0.77253   0.19223   0.77847 
C          C       0.04752   0.90896   0.67918 
C          C       0.04635   0.95592   0.72447 
C          C       0.91056   0.01731   0.72642 
C          C       0.09392   0.88282   0.68831 
C          C       0.10093   0.83940   0.76734 
C          C       0.14419   0.81464   0.77831 
C          C       0.18154   0.83298   0.71197 
C          C       0.17440   0.87572   0.63053 
C          C       0.13058   0.89970   0.61514 
C          C       0.55053   0.59221   0.72659 
C          C       0.54560   0.54425   0.72184 
C          C       0.41788   0.48398   0.81337 
C          C       0.59299   0.61536   0.69686 
C          C       0.62756   0.63646   0.67379 
C          C       0.66798   0.66352   0.64939 
C          C       0.65823   0.70405   0.55276 
C          C       0.69716   0.73232   0.53904 
C          C       0.74654   0.72018   0.62203 
C          C       0.75588   0.67951   0.71804 
C          C       0.71693   0.65118   0.73148 
N          N       0.78782   0.74924   0.62211 
C          C       0.78758   0.78418   0.52044 
C          C       0.04211   0.09630   0.86523 
C          C       0.04357   0.04961   0.81951 
C          C       0.91213   0.97157   0.68527 
C          C       0.08583   0.12744   0.89963 
C          C       0.08242   0.16869   0.80647 
C          C       0.12304   0.19809   0.83453 
C          C       0.16802   0.18685   0.95646 
C          C       0.17102   0.14648   0.55391 
C          C       0.13011   0.11748   0.52769 
C          C       0.44946   0.40779   0.77336 
C          C       0.45439   0.45575   0.77810 
C          C       0.58211   0.51602   0.68658 
C          C       0.40700   0.38463   0.80312 
C          C       0.37244   0.36353   0.82620 
C          C       0.33202   0.33648   0.85063 
C          C       0.34178   0.29594   0.94721 
C          C       0.30284   0.26767   0.96097 
C          C       0.25346   0.27982   0.87805 
C          C       0.24412   0.32050   0.78208 
C          C       0.28307   0.34883   0.76861 
N          N       0.21218   0.25077   0.87800 
C          C       0.21243   0.21582   0.97960 
C          C       0.95789   0.90370   0.63485 
C          C       0.95643   0.95039   0.68056 
C          C       0.08787   0.02844   0.81480 
C          C       0.91417   0.87256   0.60045 
C          C       0.91758   0.83131   0.69361 
C          C       0.87696   0.80191   0.66554 
C          C       0.83199   0.81315   0.54361 
C          C       0.82899   0.85352   0.94616 
C          C       0.86989   0.88252   0.97238 
C          C       0.50275   0.52403   0.75232 
C          C       0.51324   0.61921   0.76011 
C          C       0.49724   0.47596   0.74762 
C          C       0.48675   0.38079   0.73984 
C          C       0.99935   0.02340   0.77492 
C          C       0.99690   0.11557   0.86840 
C          C       0.00066   0.97660   0.72514 
C          C       0.00310   0.88444   0.63167 
H          H       0.60573   0.44850   0.65317 
H          H       0.39608   0.74414   0.76150 
H          H       0.32681   0.79513   0.75486 
H          H       0.24753   0.68434   0.91140 
H          H       0.31827   0.63304   0.92189 
H          H       0.25156   0.82067   0.64666 
H          H       0.12572   0.96895   0.78662 
H          H       0.92641   0.17472   0.67388 
H          H       0.85098   0.21839   0.65815 
H          H       0.79786   0.11002   0.92603 
H          H       0.87468   0.06852   0.95476 
H          H       0.39427   0.55150   0.84677 
H          H       0.60390   0.25584   0.73816 
H          H       0.67317   0.20486   0.74480 
H          H       0.75250   0.31569   0.58879 
H          H       0.68176   0.36699   0.57830 
H          H       0.74841   0.17931   0.85315 
H          H       0.87428   0.03106   0.71344 
H          H       0.07360   0.82527   0.82613 
H          H       0.14901   0.78160   0.84179 
H          H       0.20214   0.88999   0.57395 
H          H       0.12532   0.93149   0.54529 
H          H       0.38506   0.46963   0.83929 
H          H       0.62042   0.71406   0.99006 
H          H       0.68820   0.76382   0.96706 
H          H       0.79359   0.67044   0.78546 
H          H       0.72484   0.62039   0.80966 
H          H       0.75472   0.79333   0.91857 
H          H       0.87754   0.95344   0.65525 
H          H       0.04863   0.17750   0.70805 
H          H       0.11989   0.22898   0.75737 
H          H       0.20501   0.13750   0.65115 
H          H       0.13308   0.08708   0.60670 
H          H       0.61493   0.53037   0.66065 
H          H       0.37959   0.28592   0.50986 
H          H       0.31181   0.23617   0.53291 
H          H       0.20641   0.32958   0.71471 
H          H       0.27516   0.37963   0.69047 
H          H       0.24530   0.20665   0.58141 
H          H       0.12246   0.04656   0.84482 
H          H       0.95138   0.82250   0.79203 
H          H       0.88011   0.77101   0.74269 
H          H       0.79500   0.86250   0.84891 
H          H       0.86692   0.91292   0.89338 
H          H       0.51699   0.65602   0.76192 
H          H       0.48300   0.34397   0.73803 
H          H       0.99628   0.15094   0.90715 
H          H       0.00372   0.84906   0.59291 
