data_crystal
 
_cell_length_a    35.46720
_cell_length_b    35.46720
_cell_length_c    7.36460
_cell_angle_alpha 90.00000
_cell_angle_beta  90.00000
_cell_angle_gamma 120.00000
 
_space_group_name_Hall 'P 1'
_space_group_name_H-M_alt  'P 1'
 
loop_
_symmetry_equiv_pos_as_xyz
 'x,y,z' 
 
loop_
_atom_site_label
_atom_site_type_symbol
_atom_site_fract_x
_atom_site_fract_y
_atom_site_fract_z
C          C       0.50320   0.54182   0.22657 
C          C       0.45818   0.96138   0.22657 
C          C       0.03862   0.49680   0.22657 
C          C       0.49680   0.45818   0.22657 
C          C       0.54182   0.03862   0.22657 
C          C       0.96138   0.50320   0.22657 
C          C       0.46208   0.50311   0.22952 
C          C       0.49689   0.95897   0.22952 
C          C       0.04103   0.53792   0.22952 
C          C       0.53792   0.49689   0.22952 
C          C       0.50311   0.04103   0.22952 
C          C       0.95897   0.46208   0.22952 
C          C       0.45942   0.46242   0.22148 
C          C       0.53758   0.99700   0.22148 
C          C       0.00300   0.54058   0.22148 
C          C       0.54058   0.53758   0.22148 
C          C       0.46242   0.00300   0.22148 
C          C       0.99700   0.45942   0.22148 
C          C       0.50871   0.58668   0.23599 
C          C       0.41332   0.92203   0.23599 
C          C       0.07797   0.49129   0.23599 
C          C       0.49129   0.41332   0.23599 
C          C       0.58668   0.07797   0.23599 
C          C       0.92203   0.50871   0.23599 
C          C       0.42163   0.50321   0.24581 
C          C       0.49679   0.91842   0.24581 
C          C       0.08158   0.57837   0.24581 
C          C       0.57837   0.49679   0.24581 
C          C       0.50321   0.08158   0.24581 
C          C       0.91842   0.42163   0.24581 
C          C       0.54503   0.62053   0.32583 
C          C       0.37947   0.92450   0.32583 
C          C       0.07550   0.45497   0.32583 
C          C       0.45497   0.37947   0.32583 
C          C       0.62053   0.07550   0.32583 
C          C       0.92450   0.54503   0.32583 
C          C       0.55063   0.66232   0.33707 
C          C       0.33768   0.88831   0.33707 
C          C       0.11169   0.44937   0.33707 
C          C       0.44937   0.33768   0.33707 
C          C       0.66232   0.11169   0.33707 
C          C       0.88831   0.55063   0.33707 
C          C       0.51941   0.67121   0.26464 
C          C       0.32879   0.84820   0.26464 
C          C       0.15180   0.48059   0.26464 
C          C       0.48059   0.32879   0.26464 
C          C       0.67121   0.15180   0.26464 
C          C       0.84820   0.51941   0.26464 
C          C       0.48332   0.63798   0.17348 
C          C       0.36202   0.84534   0.17348 
C          C       0.15466   0.51668   0.17348 
C          C       0.51668   0.36202   0.17348 
C          C       0.63798   0.15466   0.17348 
C          C       0.84534   0.48332   0.17348 
C          C       0.47880   0.59671   0.15451 
C          C       0.40329   0.88209   0.15451 
C          C       0.11791   0.52120   0.15451 
C          C       0.52120   0.40329   0.15451 
C          C       0.59671   0.11791   0.15451 
C          C       0.88209   0.47880   0.15451 
C          C       0.61229   0.49679   0.25433 
C          C       0.50321   0.11550   0.25433 
C          C       0.88450   0.38771   0.25433 
C          C       0.38771   0.50321   0.25433 
C          C       0.49679   0.88450   0.25433 
C          C       0.11550   0.61229   0.25433 
C          C       0.65262   0.49646   0.25764 
C          C       0.50354   0.15616   0.25764 
C          C       0.84384   0.34738   0.25764 
C          C       0.34738   0.50354   0.25764 
C          C       0.49646   0.84384   0.25764 
C          C       0.15616   0.65262   0.25764 
C          C       0.65319   0.45834   0.21444 
C          C       0.54166   0.19485   0.21444 
C          C       0.80515   0.34681   0.21444 
C          C       0.34681   0.54166   0.21444 
C          C       0.45834   0.80515   0.21444 
C          C       0.19485   0.65319   0.21444 
C          C       0.69269   0.45858   0.20808 
C          C       0.54142   0.23411   0.20808 
C          C       0.76589   0.30731   0.20808 
C          C       0.30731   0.54142   0.20808 
C          C       0.45858   0.76589   0.20808 
C          C       0.23411   0.69269   0.20808 
C          C       0.73198   0.49674   0.24544 
C          C       0.50326   0.23524   0.24544 
C          C       0.76476   0.26802   0.24544 
C          C       0.26802   0.50326   0.24544 
C          C       0.49674   0.76476   0.24544 
C          C       0.23524   0.73198   0.24544 
C          C       0.73114   0.53506   0.28889 
C          C       0.46494   0.19608   0.28889 
C          C       0.80392   0.26886   0.28889 
C          C       0.26886   0.46494   0.28889 
C          C       0.53506   0.80392   0.28889 
C          C       0.19608   0.73114   0.28889 
C          C       0.69160   0.53473   0.29524 
C          C       0.46527   0.15687   0.29524 
C          C       0.84313   0.30840   0.29524 
C          C       0.30840   0.46527   0.29524 
C          C       0.53473   0.84313   0.29524 
C          C       0.15687   0.69160   0.29524 
C          C       0.80997   0.52504   0.28719 
C          C       0.47496   0.28493   0.28719 
C          C       0.71507   0.19003   0.28719 
C          C       0.19003   0.47496   0.28719 
C          C       0.52504   0.71507   0.28719 
C          C       0.28493   0.80997   0.28719 
N          N       0.77170   0.49531   0.23197 
N          N       0.50469   0.27639   0.23197 
N          N       0.72361   0.22830   0.23197 
N          N       0.22830   0.50469   0.23197 
N          N       0.49531   0.72361   0.23197 
N          N       0.27639   0.77170   0.23197 
H          H       0.42742   0.43367   0.21410 
H          H       0.56633   0.99375   0.21410 
H          H       0.00625   0.57258   0.21410 
H          H       0.57258   0.56633   0.21410 
H          H       0.43367   0.00625   0.21410 
H          H       0.99375   0.42742   0.21410 
H          H       0.56864   0.61465   0.39375 
H          H       0.38535   0.95399   0.39375 
H          H       0.04601   0.43136   0.39375 
H          H       0.43136   0.38535   0.39375 
H          H       0.61465   0.04601   0.39375 
H          H       0.95399   0.56864   0.39375 
H          H       0.57868   0.68738   0.40866 
H          H       0.31262   0.89130   0.40866 
H          H       0.10870   0.42132   0.40866 
H          H       0.42132   0.31262   0.40866 
H          H       0.68738   0.10870   0.40866 
H          H       0.89130   0.57868   0.40866 
H          H       0.45926   0.64420   0.11161 
H          H       0.35580   0.81506   0.11161 
H          H       0.18494   0.54074   0.11161 
H          H       0.54074   0.35580   0.11161 
H          H       0.64420   0.18494   0.11161 
H          H       0.81506   0.45926   0.11161 
H          H       0.45262   0.57344   0.06998 
H          H       0.42656   0.87918   0.06998 
H          H       0.12082   0.54738   0.06998 
H          H       0.54738   0.42656   0.06998 
H          H       0.57344   0.12082   0.06998 
H          H       0.87918   0.45262   0.06998 
H          H       0.62321   0.42861   0.18329 
H          H       0.57139   0.19460   0.18329 
H          H       0.80540   0.37679   0.18329 
H          H       0.37679   0.57139   0.18329 
H          H       0.42861   0.80540   0.18329 
H          H       0.19460   0.62321   0.18329 
H          H       0.69278   0.42899   0.17268 
H          H       0.57101   0.26379   0.17268 
H          H       0.73621   0.30722   0.17268 
H          H       0.30722   0.57101   0.17268 
H          H       0.42899   0.73621   0.17268 
H          H       0.26379   0.69278   0.17268 
H          H       0.76060   0.56550   0.31449 
H          H       0.43450   0.19510   0.31449 
H          H       0.80490   0.23940   0.31449 
H          H       0.23940   0.43450   0.31449 
H          H       0.56550   0.80490   0.31449 
H          H       0.19510   0.76060   0.31449 
H          H       0.69150   0.56451   0.32700 
H          H       0.43549   0.12699   0.32700 
H          H       0.87301   0.30850   0.32700 
H          H       0.30850   0.43549   0.32700 
H          H       0.56451   0.87301   0.32700 
H          H       0.12699   0.69150   0.32700 
H          H       0.81448   0.55391   0.35605 
H          H       0.44609   0.26057   0.35605 
H          H       0.73943   0.18552   0.35605 
H          H       0.18552   0.44609   0.35605 
H          H       0.55391   0.73943   0.35605 
H          H       0.26057   0.81448   0.35605 
C          C       0.50320   0.54182   0.72657 
C          C       0.45818   0.96138   0.72657 
C          C       0.03862   0.49680   0.72657 
C          C       0.49680   0.45818   0.72657 
C          C       0.54182   0.03862   0.72657 
C          C       0.96138   0.50320   0.72657 
C          C       0.46208   0.50311   0.72952 
C          C       0.49689   0.95897   0.72952 
C          C       0.04103   0.53792   0.72952 
C          C       0.53792   0.49689   0.72952 
C          C       0.50311   0.04103   0.72952 
C          C       0.95897   0.46208   0.72952 
C          C       0.45942   0.46242   0.72148 
C          C       0.53758   0.99700   0.72148 
C          C       0.00300   0.54058   0.72148 
C          C       0.54058   0.53758   0.72148 
C          C       0.46242   0.00300   0.72148 
C          C       0.99700   0.45942   0.72148 
C          C       0.50871   0.58668   0.73599 
C          C       0.41332   0.92203   0.73599 
C          C       0.07797   0.49129   0.73599 
C          C       0.49129   0.41332   0.73599 
C          C       0.58668   0.07797   0.73599 
C          C       0.92203   0.50871   0.73599 
C          C       0.42163   0.50321   0.74581 
C          C       0.49679   0.91842   0.74581 
C          C       0.08158   0.57837   0.74581 
C          C       0.57837   0.49679   0.74581 
C          C       0.50321   0.08158   0.74581 
C          C       0.91842   0.42163   0.74581 
C          C       0.54503   0.62053   0.82583 
C          C       0.37947   0.92450   0.82583 
C          C       0.07550   0.45497   0.82583 
C          C       0.45497   0.37947   0.82583 
C          C       0.62053   0.07550   0.82583 
C          C       0.92450   0.54503   0.82583 
C          C       0.55063   0.66232   0.83707 
C          C       0.33768   0.88831   0.83707 
C          C       0.11169   0.44937   0.83707 
C          C       0.44937   0.33768   0.83707 
C          C       0.66232   0.11169   0.83707 
C          C       0.88831   0.55063   0.83707 
C          C       0.51941   0.67121   0.76463 
C          C       0.32879   0.84820   0.76463 
C          C       0.15180   0.48059   0.76463 
C          C       0.48059   0.32879   0.76463 
C          C       0.67121   0.15180   0.76463 
C          C       0.84820   0.51941   0.76463 
C          C       0.48332   0.63798   0.67348 
C          C       0.36202   0.84534   0.67348 
C          C       0.15466   0.51668   0.67348 
C          C       0.51668   0.36202   0.67348 
C          C       0.63798   0.15466   0.67348 
C          C       0.84534   0.48332   0.67348 
C          C       0.47880   0.59671   0.65451 
C          C       0.40329   0.88209   0.65451 
C          C       0.11791   0.52120   0.65451 
C          C       0.52120   0.40329   0.65451 
C          C       0.59671   0.11791   0.65451 
C          C       0.88209   0.47880   0.65451 
C          C       0.61229   0.49679   0.75433 
C          C       0.50321   0.11550   0.75433 
C          C       0.88450   0.38771   0.75433 
C          C       0.38771   0.50321   0.75433 
C          C       0.49679   0.88450   0.75433 
C          C       0.11550   0.61229   0.75433 
C          C       0.65262   0.49646   0.75763 
C          C       0.50354   0.15616   0.75763 
C          C       0.84384   0.34738   0.75763 
C          C       0.34738   0.50354   0.75763 
C          C       0.49646   0.84384   0.75763 
C          C       0.15616   0.65262   0.75763 
C          C       0.65319   0.45834   0.71444 
C          C       0.54166   0.19485   0.71444 
C          C       0.80515   0.34681   0.71444 
C          C       0.34681   0.54166   0.71444 
C          C       0.45834   0.80515   0.71444 
C          C       0.19485   0.65319   0.71444 
C          C       0.69269   0.45858   0.70808 
C          C       0.54142   0.23411   0.70808 
C          C       0.76589   0.30731   0.70808 
C          C       0.30731   0.54142   0.70808 
C          C       0.45858   0.76589   0.70808 
C          C       0.23411   0.69269   0.70808 
C          C       0.73198   0.49674   0.74544 
C          C       0.50326   0.23524   0.74544 
C          C       0.76476   0.26802   0.74544 
C          C       0.26802   0.50326   0.74544 
C          C       0.49674   0.76476   0.74544 
C          C       0.23524   0.73198   0.74544 
C          C       0.73114   0.53506   0.78888 
C          C       0.46494   0.19608   0.78888 
C          C       0.80392   0.26886   0.78888 
C          C       0.26886   0.46494   0.78888 
C          C       0.53506   0.80392   0.78888 
C          C       0.19608   0.73114   0.78888 
C          C       0.69160   0.53473   0.79524 
C          C       0.46527   0.15687   0.79524 
C          C       0.84313   0.30840   0.79524 
C          C       0.30840   0.46527   0.79524 
C          C       0.53473   0.84313   0.79524 
C          C       0.15687   0.69160   0.79524 
C          C       0.80997   0.52504   0.78719 
C          C       0.47496   0.28493   0.78719 
C          C       0.71507   0.19003   0.78719 
C          C       0.19003   0.47496   0.78719 
C          C       0.52504   0.71507   0.78719 
C          C       0.28493   0.80997   0.78719 
N          N       0.77170   0.49531   0.73197 
N          N       0.50469   0.27639   0.73197 
N          N       0.72361   0.22830   0.73197 
N          N       0.22830   0.50469   0.73197 
N          N       0.49531   0.72361   0.73197 
N          N       0.27639   0.77170   0.73197 
H          H       0.42742   0.43367   0.71410 
H          H       0.56633   0.99375   0.71410 
H          H       0.00625   0.57258   0.71410 
H          H       0.57258   0.56633   0.71410 
H          H       0.43367   0.00625   0.71410 
H          H       0.99375   0.42742   0.71410 
H          H       0.56864   0.61465   0.89375 
H          H       0.38535   0.95399   0.89375 
H          H       0.04601   0.43136   0.89375 
H          H       0.43136   0.38535   0.89375 
H          H       0.61465   0.04601   0.89375 
H          H       0.95399   0.56864   0.89375 
H          H       0.57868   0.68738   0.90866 
H          H       0.31262   0.89130   0.90866 
H          H       0.10870   0.42132   0.90866 
H          H       0.42132   0.31262   0.90866 
H          H       0.68738   0.10870   0.90866 
H          H       0.89130   0.57868   0.90866 
H          H       0.45926   0.64420   0.61161 
H          H       0.35580   0.81506   0.61161 
H          H       0.18494   0.54074   0.61161 
H          H       0.54074   0.35580   0.61161 
H          H       0.64420   0.18494   0.61161 
H          H       0.81506   0.45926   0.61161 
H          H       0.45262   0.57344   0.56998 
H          H       0.42656   0.87918   0.56998 
H          H       0.12082   0.54738   0.56998 
H          H       0.54738   0.42656   0.56998 
H          H       0.57344   0.12082   0.56998 
H          H       0.87918   0.45262   0.56998 
H          H       0.62321   0.42861   0.68329 
H          H       0.57139   0.19460   0.68329 
H          H       0.80540   0.37679   0.68329 
H          H       0.37679   0.57139   0.68329 
H          H       0.42861   0.80540   0.68329 
H          H       0.19460   0.62321   0.68329 
H          H       0.69278   0.42899   0.67268 
H          H       0.57101   0.26379   0.67268 
H          H       0.73621   0.30722   0.67268 
H          H       0.30722   0.57101   0.67268 
H          H       0.42899   0.73621   0.67268 
H          H       0.26379   0.69278   0.67268 
H          H       0.76060   0.56550   0.81449 
H          H       0.43450   0.19510   0.81449 
H          H       0.80490   0.23940   0.81449 
H          H       0.23940   0.43450   0.81449 
H          H       0.56550   0.80490   0.81449 
H          H       0.19510   0.76060   0.81449 
H          H       0.69150   0.56451   0.82700 
H          H       0.43549   0.12699   0.82700 
H          H       0.87301   0.30850   0.82700 
H          H       0.30850   0.43549   0.82700 
H          H       0.56451   0.87301   0.82700 
H          H       0.12699   0.69150   0.82700 
H          H       0.81448   0.55391   0.85605 
H          H       0.44609   0.26057   0.85605 
H          H       0.73943   0.18552   0.85605 
H          H       0.18552   0.44609   0.85605 
H          H       0.55391   0.73943   0.85605 
H          H       0.26057   0.81448   0.85605 
