data_crystal

_cell_length_a    33.80000
_cell_length_b    33.80000
_cell_length_c    7.00000
_cell_angle_alpha 90.00000
_cell_angle_beta  90.00000
_cell_angle_gamma 120.00000

_space_group_name_Hall 'P 1'
_space_group_name_H-M_alt  'P 1'

loop_
_symmetry_equiv_pos_as_xyz
'x,y,z' 

loop_
_atom_site_label
_atom_site_type_symbol
_atom_site_fract_x
_atom_site_fract_y
_atom_site_fract_z
C          C       0.71006   0.35719   0.23481 
C          C       0.64281   0.35287   0.23481 
C          C       0.64713   0.28994   0.23481 
C          C       0.28994   0.64281   0.23481 
C          C       0.35719   0.64713   0.23481 
C          C       0.35287   0.71006   0.23481 
C          C       0.68591   0.37607   0.23475 
C          C       0.62393   0.30984   0.23475 
C          C       0.69016   0.31409   0.23475 
C          C       0.31409   0.62393   0.23475 
C          C       0.37607   0.69016   0.23475 
C          C       0.30984   0.68591   0.23475 
C          C       0.75594   0.38239   0.23528 
C          C       0.61761   0.37355   0.23528 
C          C       0.62645   0.24406   0.23528 
C          C       0.24406   0.61761   0.23528 
C          C       0.38239   0.62645   0.23528 
C          C       0.37355   0.75594   0.23528 
C          C       0.77637   0.42195   0.15757 
C          C       0.57805   0.35442   0.15757 
C          C       0.64558   0.22363   0.15757 
C          C       0.22363   0.57805   0.15757 
C          C       0.42195   0.64558   0.15757 
C          C       0.35442   0.77637   0.15757 
C          C       0.81918   0.44556   0.16052 
C          C       0.55444   0.37362   0.16052 
C          C       0.62638   0.18082   0.16052 
C          C       0.18082   0.55444   0.16052 
C          C       0.44556   0.62638   0.16052 
C          C       0.37362   0.81918   0.16052 
C          C       0.84272   0.43000   0.23505 
C          C       0.57000   0.41272   0.23505 
C          C       0.58728   0.15728   0.23505 
C          C       0.15728   0.57000   0.23505 
C          C       0.43000   0.58728   0.23505 
C          C       0.41272   0.84272   0.23505 
C          C       0.82279   0.39066   0.31302 
C          C       0.60934   0.43213   0.31302 
C          C       0.56787   0.17721   0.31302 
C          C       0.17721   0.60934   0.31302 
C          C       0.39066   0.56787   0.31302 
C          C       0.43213   0.82279   0.31302 
C          C       0.77995   0.36731   0.31443 
C          C       0.63269   0.41264   0.31443 
C          C       0.58736   0.22005   0.31443 
C          C       0.22005   0.63269   0.31443 
C          C       0.36731   0.58736   0.31443 
C          C       0.41264   0.77995   0.31443 
N          N       0.88655   0.45557   0.23420 
N          N       0.54443   0.43098   0.23420 
N          N       0.56902   0.11345   0.23420 
N          N       0.11345   0.54443   0.23420 
N          N       0.45557   0.56902   0.23420 
N          N       0.43098   0.88655   0.23420 
C          C       0.91285   0.44293   0.24959 
C          C       0.55707   0.46992   0.24959 
C          C       0.53008   0.08715   0.24959 
C          C       0.08715   0.55707   0.24959 
C          C       0.44293   0.53008   0.24959 
C          C       0.46992   0.91285   0.24959 
C          C       0.95737   0.47235   0.24925 
C          C       0.52765   0.48502   0.24925 
C          C       0.51498   0.04263   0.24925 
C          C       0.04263   0.52765   0.24925 
C          C       0.47235   0.51498   0.24925 
C          C       0.48502   0.95737   0.24925 
H          H       0.70076   0.40906   0.23484 
H          H       0.59094   0.29170   0.23484 
H          H       0.70830   0.29924   0.23484 
H          H       0.29924   0.59094   0.23484 
H          H       0.40906   0.70830   0.23484 
H          H       0.29170   0.70076   0.23484 
H          H       0.75960   0.43439   0.08883 
H          H       0.56561   0.32521   0.08883 
H          H       0.67479   0.24040   0.08883 
H          H       0.24040   0.56561   0.08883 
H          H       0.43439   0.67479   0.08883 
H          H       0.32521   0.75960   0.08883 
H          H       0.83441   0.47574   0.09923 
H          H       0.52426   0.35867   0.09923 
H          H       0.64133   0.16559   0.09923 
H          H       0.16559   0.52426   0.09923 
H          H       0.47574   0.64133   0.09923 
H          H       0.35867   0.83441   0.09923 
H          H       0.84005   0.37860   0.38018 
H          H       0.62140   0.46145   0.38018 
H          H       0.53855   0.15995   0.38018 
H          H       0.15995   0.62140   0.38018 
H          H       0.37860   0.53855   0.38018 
H          H       0.46145   0.84005   0.38018 
H          H       0.76584   0.33813   0.38429 
H          H       0.66187   0.42771   0.38429 
H          H       0.57229   0.23416   0.38429 
H          H       0.23416   0.66187   0.38429 
H          H       0.33813   0.57229   0.38429 
H          H       0.42771   0.76584   0.38429 
H          H       0.90268   0.41054   0.25754 
H          H       0.58946   0.49214   0.25754 
H          H       0.50786   0.09732   0.25754 
H          H       0.09732   0.58946   0.25754 
H          H       0.41054   0.50786   0.25754 
H          H       0.49214   0.90268   0.25754 
C          C       0.45771   0.47262   0.24968 
C          C       0.52738   0.98509   0.24968 
C          C       0.01491   0.54229   0.24968 
C          C       0.54229   0.52738   0.24968 
C          C       0.47262   0.01491   0.24968 
C          C       0.98509   0.45771   0.24968 
C          C       0.48512   0.45774   0.24922 
C          C       0.54226   0.02738   0.24922 
C          C       0.97262   0.51488   0.24922 
C          C       0.51488   0.54226   0.24922 
C          C       0.45774   0.97262   0.24922 
C          C       0.02738   0.48512   0.24922 
H          H       0.42506   0.45104   0.24996 
H          H       0.54896   0.97402   0.24996 
H          H       0.02598   0.57494   0.24996 
H          H       0.57494   0.54896   0.24996 
H          H       0.45104   0.02598   0.24996 
H          H       0.97402   0.42506   0.24996 
H          H       0.47323   0.42495   0.24943 
H          H       0.57505   0.04828   0.24943 
H          H       0.95172   0.52677   0.24943 
H          H       0.52677   0.57505   0.24943 
H          H       0.42495   0.95172   0.24943 
H          H       0.04828   0.47323   0.24943 
C          C       0.71006   0.35719   0.73481 
C          C       0.64281   0.35287   0.73481 
C          C       0.64713   0.28994   0.73481 
C          C       0.28994   0.64281   0.73481 
C          C       0.35719   0.64713   0.73481 
C          C       0.35287   0.71006   0.73481 
C          C       0.68591   0.37607   0.73475 
C          C       0.62393   0.30984   0.73475 
C          C       0.69016   0.31409   0.73475 
C          C       0.31409   0.62393   0.73475 
C          C       0.37607   0.69016   0.73475 
C          C       0.30984   0.68591   0.73475 
C          C       0.75594   0.38239   0.73528 
C          C       0.61761   0.37355   0.73528 
C          C       0.62645   0.24406   0.73528 
C          C       0.24406   0.61761   0.73528 
C          C       0.38239   0.62645   0.73528 
C          C       0.37355   0.75594   0.73528 
C          C       0.77637   0.42195   0.65757 
C          C       0.57805   0.35442   0.65757 
C          C       0.64558   0.22363   0.65757 
C          C       0.22363   0.57805   0.65757 
C          C       0.42195   0.64558   0.65757 
C          C       0.35442   0.77637   0.65757 
C          C       0.81918   0.44556   0.66052 
C          C       0.55444   0.37362   0.66052 
C          C       0.62638   0.18082   0.66052 
C          C       0.18082   0.55444   0.66052 
C          C       0.44556   0.62638   0.66052 
C          C       0.37362   0.81918   0.66052 
C          C       0.84272   0.43000   0.73506 
C          C       0.57000   0.41272   0.73506 
C          C       0.58728   0.15728   0.73506 
C          C       0.15728   0.57000   0.73506 
C          C       0.43000   0.58728   0.73506 
C          C       0.41272   0.84272   0.73506 
C          C       0.82279   0.39066   0.81302 
C          C       0.60934   0.43213   0.81302 
C          C       0.56787   0.17721   0.81302 
C          C       0.17721   0.60934   0.81302 
C          C       0.39066   0.56787   0.81302 
C          C       0.43213   0.82279   0.81302 
C          C       0.77995   0.36731   0.81442 
C          C       0.63269   0.41264   0.81442 
C          C       0.58736   0.22005   0.81442 
C          C       0.22005   0.63269   0.81442 
C          C       0.36731   0.58736   0.81442 
C          C       0.41264   0.77995   0.81442 
N          N       0.88655   0.45557   0.73420 
N          N       0.54443   0.43098   0.73420 
N          N       0.56902   0.11345   0.73420 
N          N       0.11345   0.54443   0.73420 
N          N       0.45557   0.56902   0.73420 
N          N       0.43098   0.88655   0.73420 
C          C       0.91285   0.44293   0.74958 
C          C       0.55707   0.46992   0.74958 
C          C       0.53008   0.08715   0.74958 
C          C       0.08715   0.55707   0.74958 
C          C       0.44293   0.53008   0.74958 
C          C       0.46992   0.91285   0.74958 
C          C       0.95737   0.47235   0.74925 
C          C       0.52765   0.48502   0.74925 
C          C       0.51498   0.04263   0.74925 
C          C       0.04263   0.52765   0.74925 
C          C       0.47235   0.51498   0.74925 
C          C       0.48502   0.95737   0.74925 
H          H       0.70076   0.40906   0.73484 
H          H       0.59094   0.29170   0.73484 
H          H       0.70830   0.29924   0.73484 
H          H       0.29924   0.59094   0.73484 
H          H       0.40906   0.70830   0.73484 
H          H       0.29170   0.70076   0.73484 
H          H       0.75960   0.43439   0.58883 
H          H       0.56561   0.32521   0.58883 
H          H       0.67479   0.24040   0.58883 
H          H       0.24040   0.56561   0.58883 
H          H       0.43439   0.67479   0.58883 
H          H       0.32521   0.75960   0.58883 
H          H       0.83441   0.47574   0.59923 
H          H       0.52426   0.35867   0.59923 
H          H       0.64133   0.16559   0.59923 
H          H       0.16559   0.52426   0.59923 
H          H       0.47574   0.64133   0.59923 
H          H       0.35867   0.83441   0.59923 
H          H       0.84005   0.37860   0.88018 
H          H       0.62140   0.46145   0.88018 
H          H       0.53855   0.15995   0.88018 
H          H       0.15995   0.62140   0.88018 
H          H       0.37860   0.53855   0.88018 
H          H       0.46145   0.84005   0.88018 
H          H       0.76584   0.33813   0.88430 
H          H       0.66187   0.42771   0.88430 
H          H       0.57229   0.23416   0.88430 
H          H       0.23416   0.66187   0.88430 
H          H       0.33813   0.57229   0.88430 
H          H       0.42771   0.76584   0.88430 
H          H       0.90268   0.41054   0.75753 
H          H       0.58946   0.49214   0.75753 
H          H       0.50786   0.09732   0.75753 
H          H       0.09732   0.58946   0.75753 
H          H       0.41054   0.50786   0.75753 
H          H       0.49214   0.90268   0.75753 
C          C       0.45771   0.47262   0.74968 
C          C       0.52738   0.98509   0.74968 
C          C       0.01491   0.54229   0.74968 
C          C       0.54229   0.52738   0.74968 
C          C       0.47262   0.01491   0.74968 
C          C       0.98509   0.45771   0.74968 
C          C       0.48512   0.45774   0.74923 
C          C       0.54226   0.02738   0.74923 
C          C       0.97262   0.51488   0.74923 
C          C       0.51488   0.54226   0.74923 
C          C       0.45774   0.97262   0.74923 
C          C       0.02738   0.48512   0.74923 
H          H       0.42506   0.45104   0.74996 
H          H       0.54896   0.97402   0.74996 
H          H       0.02598   0.57494   0.74996 
H          H       0.57494   0.54896   0.74996 
H          H       0.45104   0.02598   0.74996 
H          H       0.97402   0.42506   0.74996 
H          H       0.47323   0.42495   0.74942 
H          H       0.57505   0.04828   0.74942 
H          H       0.95172   0.52677   0.74942 
H          H       0.52677   0.57505   0.74942 
H          H       0.42495   0.95172   0.74942 
H          H       0.04828   0.47323   0.74942 
