data_crystal

_cell_length_a    39.70000
_cell_length_b    39.70000
_cell_length_c    7.40000
_cell_angle_alpha 90.00000
_cell_angle_beta  90.00000
_cell_angle_gamma 120.00000

_space_group_name_Hall 'P 1'
_space_group_name_H-M_alt  'P 1'

loop_
_symmetry_equiv_pos_as_xyz
'x,y,z' 

loop_
_atom_site_label
_atom_site_type_symbol
_atom_site_fract_x
_atom_site_fract_y
_atom_site_fract_z
C          C       0.70717   0.35510   0.22918 
C          C       0.64490   0.35207   0.22918 
C          C       0.64793   0.29283   0.22918 
C          C       0.29283   0.64490   0.22918 
C          C       0.35510   0.64793   0.22918 
C          C       0.35207   0.70717   0.22918 
C          C       0.68514   0.37325   0.22870 
C          C       0.62675   0.31189   0.22870 
C          C       0.68811   0.31486   0.22870 
C          C       0.31486   0.62675   0.22870 
C          C       0.37325   0.68811   0.22870 
C          C       0.31189   0.68514   0.22870 
C          C       0.74998   0.37810   0.23371 
C          C       0.62190   0.37188   0.23371 
C          C       0.62812   0.25002   0.23371 
C          C       0.25002   0.62190   0.23371 
C          C       0.37810   0.62812   0.23371 
C          C       0.37188   0.74998   0.23371 
C          C       0.76981   0.41500   0.15742 
C          C       0.58500   0.35481   0.15742 
C          C       0.64519   0.23019   0.15742 
C          C       0.23019   0.58500   0.15742 
C          C       0.41500   0.64519   0.15742 
C          C       0.35481   0.76981   0.15742 
C          C       0.80975   0.43681   0.16699 
C          C       0.56319   0.37294   0.16699 
C          C       0.62706   0.19025   0.16699 
C          C       0.19025   0.56319   0.16699 
C          C       0.43681   0.62706   0.16699 
C          C       0.37294   0.80975   0.16699 
C          C       0.83094   0.42210   0.24729 
C          C       0.57790   0.40884   0.24729 
C          C       0.59116   0.16906   0.24729 
C          C       0.16906   0.57790   0.24729 
C          C       0.42210   0.59116   0.24729 
C          C       0.40884   0.83094   0.24729 
C          C       0.81156   0.38525   0.32263 
C          C       0.61475   0.42631   0.32263 
C          C       0.57369   0.18844   0.32263 
C          C       0.18844   0.61475   0.32263 
C          C       0.38525   0.57369   0.32263 
C          C       0.42631   0.81156   0.32263 
C          C       0.77157   0.36366   0.31703 
C          C       0.63634   0.40791   0.31703 
C          C       0.59209   0.22843   0.31703 
C          C       0.22843   0.63634   0.31703 
C          C       0.36366   0.59209   0.31703 
C          C       0.40791   0.77157   0.31703 
N          N       0.87178   0.44610   0.25549 
N          N       0.55390   0.42568   0.25549 
N          N       0.57432   0.12822   0.25549 
N          N       0.12822   0.55390   0.25549 
N          N       0.44610   0.57432   0.25549 
N          N       0.42568   0.87178   0.25549 
C          C       0.89649   0.43506   0.28724 
C          C       0.56494   0.46143   0.28724 
C          C       0.53857   0.10351   0.28724 
C          C       0.10351   0.56494   0.28724 
C          C       0.43506   0.53857   0.28724 
C          C       0.46143   0.89649   0.28724 
C          C       0.93763   0.46305   0.29107 
C          C       0.53695   0.47458   0.29107 
C          C       0.52542   0.06237   0.29107 
C          C       0.06237   0.53695   0.29107 
C          C       0.46305   0.52542   0.29107 
C          C       0.47458   0.93763   0.29107 
H          H       0.69989   0.40590   0.22791 
H          H       0.59410   0.29399   0.22791 
H          H       0.70601   0.30011   0.22791 
H          H       0.30011   0.59410   0.22791 
H          H       0.40590   0.70601   0.22791 
H          H       0.29399   0.69989   0.22791 
H          H       0.75294   0.42703   0.08736 
H          H       0.57297   0.32591   0.08736 
H          H       0.67409   0.24706   0.08736 
H          H       0.24706   0.57297   0.08736 
H          H       0.42703   0.67409   0.08736 
H          H       0.32591   0.75294   0.08736 
H          H       0.82542   0.46702   0.10874 
H          H       0.53298   0.35840   0.10874 
H          H       0.64160   0.17458   0.10874 
H          H       0.17458   0.53298   0.10874 
H          H       0.46702   0.64160   0.10874 
H          H       0.35840   0.82542   0.10874 
H          H       0.82847   0.37282   0.38879 
H          H       0.62718   0.45565   0.38879 
H          H       0.54435   0.17153   0.38879 
H          H       0.17153   0.62718   0.38879 
H          H       0.37282   0.54435   0.38879 
H          H       0.45565   0.82847   0.38879 
H          H       0.75595   0.33394   0.38037 
H          H       0.66606   0.42201   0.38037 
H          H       0.57799   0.24405   0.38037 
H          H       0.24405   0.66606   0.38037 
H          H       0.33394   0.57799   0.38037 
H          H       0.42201   0.75595   0.38037 
H          H       0.88621   0.40344   0.31231 
H          H       0.59656   0.48277   0.31231 
H          H       0.51723   0.11379   0.31231 
H          H       0.11379   0.59656   0.31231 
H          H       0.40344   0.51723   0.31231 
H          H       0.48277   0.88621   0.31231 
C          C       0.45155   0.48668   0.29280 
C          C       0.51332   0.96487   0.29280 
C          C       0.03513   0.54845   0.29280 
C          C       0.54845   0.51332   0.29280 
C          C       0.48668   0.03513   0.29280 
C          C       0.96487   0.45155   0.29280 
C          C       0.48354   0.48321   0.29349 
C          C       0.51679   0.00033   0.29349 
C          C       0.99967   0.51646   0.29349 
C          C       0.51646   0.51679   0.29349 
C          C       0.48321   0.99967   0.29349 
C          C       0.00033   0.48354   0.29349 
S          S       0.48793   0.44355   0.29085 
S          S       0.55645   0.04438   0.29085 
S          S       0.95562   0.51207   0.29085 
S          S       0.51207   0.55645   0.29085 
S          S       0.44355   0.95562   0.29085 
S          S       0.04438   0.48793   0.29085 
H          H       0.41972   0.46429   0.29340 
H          H       0.53571   0.95543   0.29340 
H          H       0.04457   0.58028   0.29340 
H          H       0.58028   0.53571   0.29340 
H          H       0.46429   0.04457   0.29340 
H          H       0.95543   0.41972   0.29340 
C          C       0.70717   0.35510   0.72918 
C          C       0.64490   0.35207   0.72918 
C          C       0.64793   0.29283   0.72918 
C          C       0.29283   0.64490   0.72918 
C          C       0.35510   0.64793   0.72918 
C          C       0.35207   0.70717   0.72918 
C          C       0.68514   0.37325   0.72870 
C          C       0.62675   0.31189   0.72870 
C          C       0.68811   0.31486   0.72870 
C          C       0.31486   0.62675   0.72870 
C          C       0.37325   0.68811   0.72870 
C          C       0.31189   0.68514   0.72870 
C          C       0.74998   0.37810   0.73371 
C          C       0.62190   0.37188   0.73371 
C          C       0.62812   0.25002   0.73371 
C          C       0.25002   0.62190   0.73371 
C          C       0.37810   0.62812   0.73371 
C          C       0.37188   0.74998   0.73371 
C          C       0.76981   0.41500   0.65742 
C          C       0.58500   0.35481   0.65742 
C          C       0.64519   0.23019   0.65742 
C          C       0.23019   0.58500   0.65742 
C          C       0.41500   0.64519   0.65742 
C          C       0.35481   0.76981   0.65742 
C          C       0.80975   0.43681   0.66699 
C          C       0.56319   0.37294   0.66699 
C          C       0.62706   0.19025   0.66699 
C          C       0.19025   0.56319   0.66699 
C          C       0.43681   0.62706   0.66699 
C          C       0.37294   0.80975   0.66699 
C          C       0.83094   0.42210   0.74728 
C          C       0.57790   0.40884   0.74728 
C          C       0.59116   0.16906   0.74728 
C          C       0.16906   0.57790   0.74728 
C          C       0.42210   0.59116   0.74728 
C          C       0.40884   0.83094   0.74728 
C          C       0.81156   0.38525   0.82263 
C          C       0.61475   0.42631   0.82263 
C          C       0.57369   0.18844   0.82263 
C          C       0.18844   0.61475   0.82263 
C          C       0.38525   0.57369   0.82263 
C          C       0.42631   0.81156   0.82263 
C          C       0.77157   0.36366   0.81702 
C          C       0.63634   0.40791   0.81702 
C          C       0.59209   0.22843   0.81702 
C          C       0.22843   0.63634   0.81702 
C          C       0.36366   0.59209   0.81702 
C          C       0.40791   0.77157   0.81702 
N          N       0.87178   0.44610   0.75549 
N          N       0.55390   0.42568   0.75549 
N          N       0.57432   0.12822   0.75549 
N          N       0.12822   0.55390   0.75549 
N          N       0.44610   0.57432   0.75549 
N          N       0.42568   0.87178   0.75549 
C          C       0.89649   0.43506   0.78724 
C          C       0.56494   0.46143   0.78724 
C          C       0.53857   0.10351   0.78724 
C          C       0.10351   0.56494   0.78724 
C          C       0.43506   0.53857   0.78724 
C          C       0.46143   0.89649   0.78724 
C          C       0.93763   0.46305   0.79107 
C          C       0.53695   0.47458   0.79107 
C          C       0.52542   0.06237   0.79107 
C          C       0.06237   0.53695   0.79107 
C          C       0.46305   0.52542   0.79107 
C          C       0.47458   0.93763   0.79107 
H          H       0.69989   0.40590   0.72791 
H          H       0.59410   0.29399   0.72791 
H          H       0.70601   0.30011   0.72791 
H          H       0.30011   0.59410   0.72791 
H          H       0.40590   0.70601   0.72791 
H          H       0.29399   0.69989   0.72791 
H          H       0.75294   0.42703   0.58736 
H          H       0.57297   0.32591   0.58736 
H          H       0.67409   0.24706   0.58736 
H          H       0.24706   0.57297   0.58736 
H          H       0.42703   0.67409   0.58736 
H          H       0.32591   0.75294   0.58736 
H          H       0.82542   0.46702   0.60874 
H          H       0.53298   0.35840   0.60874 
H          H       0.64160   0.17458   0.60874 
H          H       0.17458   0.53298   0.60874 
H          H       0.46702   0.64160   0.60874 
H          H       0.35840   0.82542   0.60874 
H          H       0.82847   0.37282   0.88879 
H          H       0.62718   0.45565   0.88879 
H          H       0.54435   0.17153   0.88879 
H          H       0.17153   0.62718   0.88879 
H          H       0.37282   0.54435   0.88879 
H          H       0.45565   0.82847   0.88879 
H          H       0.75595   0.33394   0.88037 
H          H       0.66606   0.42201   0.88037 
H          H       0.57799   0.24405   0.88037 
H          H       0.24405   0.66606   0.88037 
H          H       0.33394   0.57799   0.88037 
H          H       0.42201   0.75595   0.88037 
H          H       0.88621   0.40344   0.81231 
H          H       0.59656   0.48277   0.81231 
H          H       0.51723   0.11379   0.81231 
H          H       0.11379   0.59656   0.81231 
H          H       0.40344   0.51723   0.81231 
H          H       0.48277   0.88621   0.81231 
C          C       0.45155   0.48668   0.79280 
C          C       0.51332   0.96487   0.79280 
C          C       0.03513   0.54845   0.79280 
C          C       0.54845   0.51332   0.79280 
C          C       0.48668   0.03513   0.79280 
C          C       0.96487   0.45155   0.79280 
C          C       0.48354   0.48321   0.79349 
C          C       0.51679   0.00033   0.79349 
C          C       0.99967   0.51646   0.79349 
C          C       0.51646   0.51679   0.79349 
C          C       0.48321   0.99967   0.79349 
C          C       0.00033   0.48354   0.79349 
S          S       0.48793   0.44355   0.79085 
S          S       0.55645   0.04438   0.79085 
S          S       0.95562   0.51207   0.79085 
S          S       0.51207   0.55645   0.79085 
S          S       0.44355   0.95562   0.79085 
S          S       0.04438   0.48793   0.79085 
H          H       0.41972   0.46429   0.79340 
H          H       0.53571   0.95543   0.79340 
H          H       0.04457   0.58028   0.79340 
H          H       0.58028   0.53571   0.79340 
H          H       0.46429   0.04457   0.79340 
H          H       0.95543   0.41972   0.79340 
