data_crystal

_cell_length_a    44.10000
_cell_length_b    44.10000
_cell_length_c    7.00000
_cell_angle_alpha 90.00000
_cell_angle_beta  90.00000
_cell_angle_gamma 120.00000

_space_group_name_Hall 'P 1'
_space_group_name_H-M_alt  'P 1'

loop_
_symmetry_equiv_pos_as_xyz
'x,y,z' 

loop_
_atom_site_label
_atom_site_type_symbol
_atom_site_fract_x
_atom_site_fract_y
_atom_site_fract_z
C          C       0.25827   0.63099   0.19221 
C          C       0.36901   0.62728   0.19221 
C          C       0.37272   0.74173   0.19221 
C          C       0.74173   0.36901   0.19221 
C          C       0.63099   0.37272   0.19221 
C          C       0.62728   0.25827   0.19221 
C          C       0.24030   0.64663   0.26656 
C          C       0.35337   0.59367   0.26656 
C          C       0.40633   0.75970   0.26656 
C          C       0.75970   0.35337   0.26656 
C          C       0.64663   0.40633   0.26656 
C          C       0.59367   0.24030   0.26656 
C          C       0.20435   0.62962   0.26350 
C          C       0.37038   0.57473   0.26350 
C          C       0.42527   0.79565   0.26350 
C          C       0.79565   0.37038   0.26350 
C          C       0.62962   0.42527   0.26350 
C          C       0.57473   0.20435   0.26350 
C          C       0.18533   0.59627   0.19289 
C          C       0.40373   0.58906   0.19289 
C          C       0.41094   0.81467   0.19289 
C          C       0.81467   0.40373   0.19289 
C          C       0.59627   0.41094   0.19289 
C          C       0.58906   0.18533   0.19289 
C          C       0.20283   0.58034   0.11856 
C          C       0.41966   0.62249   0.11856 
C          C       0.37751   0.79717   0.11856 
C          C       0.79717   0.41966   0.11856 
C          C       0.58034   0.37751   0.11856 
C          C       0.62249   0.20283   0.11856 
C          C       0.23880   0.59761   0.11660 
C          C       0.40239   0.64119   0.11660 
C          C       0.35881   0.76120   0.11660 
C          C       0.76120   0.40239   0.11660 
C          C       0.59761   0.35881   0.11660 
C          C       0.64119   0.23880   0.11660 
N          N       0.14848   0.58002   0.19396 
N          N       0.41998   0.56846   0.19396 
N          N       0.43154   0.85152   0.19396 
N          N       0.85152   0.41998   0.19396 
N          N       0.58002   0.43154   0.19396 
N          N       0.56846   0.14848   0.19396 
C          C       0.12708   0.54717   0.18093 
C          C       0.45283   0.57991   0.18093 
C          C       0.42009   0.87292   0.18093 
C          C       0.87292   0.45283   0.18093 
C          C       0.54717   0.42009   0.18093 
C          C       0.57991   0.12708   0.18093 
C          C       0.08957   0.53358   0.18125 
C          C       0.46642   0.55599   0.18125 
C          C       0.44401   0.91043   0.18125 
C          C       0.91043   0.46642   0.18125 
C          C       0.53358   0.44401   0.18125 
C          C       0.55599   0.08957   0.18125 
C          C       0.07601   0.55584   0.18176 
C          C       0.44416   0.52017   0.18176 
C          C       0.47983   0.92399   0.18176 
C          C       0.92399   0.44416   0.18176 
C          C       0.55584   0.47983   0.18176 
C          C       0.52017   0.07601   0.18176 
C          C       0.04036   0.54266   0.18144 
C          C       0.45734   0.49770   0.18144 
C          C       0.50230   0.95964   0.18144 
C          C       0.95964   0.45734   0.18144 
C          C       0.54266   0.50230   0.18144 
C          C       0.49770   0.04036   0.18144 
C          C       0.01795   0.50674   0.18116 
C          C       0.49326   0.51121   0.18116 
C          C       0.48879   0.98205   0.18116 
C          C       0.98205   0.49326   0.18116 
C          C       0.50674   0.48879   0.18116 
C          C       0.51121   0.01795   0.18116 
C          C       0.03140   0.48427   0.18081 
C          C       0.51573   0.54713   0.18081 
C          C       0.45287   0.96860   0.18081 
C          C       0.96860   0.51573   0.18081 
C          C       0.48427   0.45287   0.18081 
C          C       0.54713   0.03140   0.18081 
C          C       0.06712   0.49785   0.18045 
C          C       0.50215   0.56927   0.18045 
C          C       0.43073   0.93288   0.18045 
C          C       0.93288   0.50215   0.18045 
C          C       0.49785   0.43073   0.18045 
C          C       0.56927   0.06712   0.18045 
C          C       0.02673   0.56478   0.18130 
C          C       0.43522   0.46195   0.18130 
C          C       0.53805   0.97327   0.18130 
C          C       0.97327   0.43522   0.18130 
C          C       0.56478   0.53805   0.18130 
C          C       0.46195   0.02673   0.18130 
C          C       0.00889   0.44859   0.18083 
C          C       0.55141   0.56030   0.18083 
C          C       0.43970   0.99111   0.18083 
C          C       0.99111   0.55141   0.18083 
C          C       0.44859   0.43970   0.18083 
C          C       0.56030   0.00889   0.18083 
C          C       0.29686   0.64934   0.19256 
C          C       0.35066   0.64752   0.19256 
C          C       0.35248   0.70314   0.19256 
C          C       0.70314   0.35066   0.19256 
C          C       0.64934   0.35248   0.19256 
C          C       0.64752   0.29686   0.19256 
C          C       0.31629   0.68550   0.19262 
C          C       0.31450   0.63079   0.19262 
C          C       0.36921   0.68371   0.19262 
C          C       0.68371   0.31450   0.19262 
C          C       0.68550   0.36921   0.19262 
C          C       0.63079   0.31629   0.19262 
H          H       0.25367   0.67156   0.33300 
H          H       0.32844   0.58211   0.33300 
H          H       0.41789   0.74633   0.33300 
H          H       0.74633   0.32844   0.33300 
H          H       0.67156   0.41789   0.33300 
H          H       0.58211   0.25367   0.33300 
H          H       0.19103   0.64196   0.32187 
H          H       0.35804   0.54907   0.32187 
H          H       0.45093   0.80897   0.32187 
H          H       0.80897   0.35804   0.32187 
H          H       0.64196   0.45093   0.32187 
H          H       0.54907   0.19103   0.32187 
H          H       0.18897   0.55524   0.05445 
H          H       0.44476   0.63373   0.05445 
H          H       0.36627   0.81103   0.05445 
H          H       0.81103   0.44476   0.05445 
H          H       0.55524   0.36627   0.05445 
H          H       0.63373   0.18897   0.05445 
H          H       0.25108   0.58505   0.04886 
H          H       0.41495   0.66603   0.04886 
H          H       0.33397   0.74892   0.04886 
H          H       0.74892   0.41495   0.04886 
H          H       0.58505   0.33397   0.04886 
H          H       0.66603   0.25108   0.04886 
H          H       0.13630   0.52905   0.17481 
H          H       0.47095   0.60725   0.17481 
H          H       0.39275   0.86370   0.17481 
H          H       0.86370   0.47095   0.17481 
H          H       0.52905   0.39275   0.17481 
H          H       0.60725   0.13630   0.17481 
H          H       0.09326   0.58342   0.18191 
H          H       0.41658   0.50984   0.18191 
H          H       0.49016   0.90674   0.18191 
H          H       0.90674   0.41658   0.18191 
H          H       0.58342   0.49016   0.18191 
H          H       0.50984   0.09326   0.18191 
H          H       0.07750   0.48064   0.17999 
H          H       0.51936   0.59686   0.17999 
H          H       0.40314   0.92250   0.17999 
H          H       0.92250   0.51936   0.17999 
H          H       0.48064   0.40314   0.17999 
H          H       0.59686   0.07750   0.17999 
H          H       0.04363   0.59242   0.18143 
H          H       0.40758   0.45121   0.18143 
H          H       0.54879   0.95637   0.18143 
H          H       0.95637   0.40758   0.18143 
H          H       0.59242   0.54879   0.18143 
H          H       0.45121   0.04363   0.18143 
H          H       0.01887   0.43105   0.18060 
H          H       0.56895   0.58782   0.18060 
H          H       0.41218   0.98113   0.18060 
H          H       0.98113   0.56895   0.18060 
H          H       0.43105   0.41218   0.18060 
H          H       0.58782   0.01887   0.18060 
H          H       0.30315   0.70004   0.19259 
H          H       0.29996   0.60311   0.19259 
H          H       0.39689   0.69685   0.19259 
H          H       0.69685   0.29996   0.19259 
H          H       0.70004   0.39689   0.19259 
H          H       0.60311   0.30315   0.19259 
C          C       0.25827   0.63099   0.69221 
C          C       0.36901   0.62728   0.69221 
C          C       0.37272   0.74173   0.69221 
C          C       0.74173   0.36901   0.69221 
C          C       0.63099   0.37272   0.69221 
C          C       0.62728   0.25827   0.69221 
C          C       0.24030   0.64663   0.76656 
C          C       0.35337   0.59367   0.76656 
C          C       0.40633   0.75970   0.76656 
C          C       0.75970   0.35337   0.76656 
C          C       0.64663   0.40633   0.76656 
C          C       0.59367   0.24030   0.76656 
C          C       0.20435   0.62962   0.76350 
C          C       0.37038   0.57473   0.76350 
C          C       0.42527   0.79565   0.76350 
C          C       0.79565   0.37038   0.76350 
C          C       0.62962   0.42527   0.76350 
C          C       0.57473   0.20435   0.76350 
C          C       0.18533   0.59627   0.69289 
C          C       0.40373   0.58906   0.69289 
C          C       0.41094   0.81467   0.69289 
C          C       0.81467   0.40373   0.69289 
C          C       0.59627   0.41094   0.69289 
C          C       0.58906   0.18533   0.69289 
C          C       0.20283   0.58034   0.61856 
C          C       0.41966   0.62249   0.61856 
C          C       0.37751   0.79717   0.61856 
C          C       0.79717   0.41966   0.61856 
C          C       0.58034   0.37751   0.61856 
C          C       0.62249   0.20283   0.61856 
C          C       0.23880   0.59761   0.61660 
C          C       0.40239   0.64119   0.61660 
C          C       0.35881   0.76120   0.61660 
C          C       0.76120   0.40239   0.61660 
C          C       0.59761   0.35881   0.61660 
C          C       0.64119   0.23880   0.61660 
N          N       0.14848   0.58002   0.69396 
N          N       0.41998   0.56846   0.69396 
N          N       0.43154   0.85152   0.69396 
N          N       0.85152   0.41998   0.69396 
N          N       0.58002   0.43154   0.69396 
N          N       0.56846   0.14848   0.69396 
C          C       0.12708   0.54717   0.68093 
C          C       0.45283   0.57991   0.68093 
C          C       0.42009   0.87292   0.68093 
C          C       0.87292   0.45283   0.68093 
C          C       0.54717   0.42009   0.68093 
C          C       0.57991   0.12708   0.68093 
C          C       0.08957   0.53358   0.68125 
C          C       0.46642   0.55599   0.68125 
C          C       0.44401   0.91043   0.68125 
C          C       0.91043   0.46642   0.68125 
C          C       0.53358   0.44401   0.68125 
C          C       0.55599   0.08957   0.68125 
C          C       0.07601   0.55584   0.68176 
C          C       0.44416   0.52017   0.68176 
C          C       0.47983   0.92399   0.68176 
C          C       0.92399   0.44416   0.68176 
C          C       0.55584   0.47983   0.68176 
C          C       0.52017   0.07601   0.68176 
C          C       0.04036   0.54266   0.68144 
C          C       0.45734   0.49770   0.68144 
C          C       0.50230   0.95964   0.68144 
C          C       0.95964   0.45734   0.68144 
C          C       0.54266   0.50230   0.68144 
C          C       0.49770   0.04036   0.68144 
C          C       0.01795   0.50674   0.68116 
C          C       0.49326   0.51121   0.68116 
C          C       0.48879   0.98205   0.68116 
C          C       0.98205   0.49326   0.68116 
C          C       0.50674   0.48879   0.68116 
C          C       0.51121   0.01795   0.68116 
C          C       0.03140   0.48427   0.68081 
C          C       0.51573   0.54713   0.68081 
C          C       0.45287   0.96860   0.68081 
C          C       0.96860   0.51573   0.68081 
C          C       0.48427   0.45287   0.68081 
C          C       0.54713   0.03140   0.68081 
C          C       0.06712   0.49785   0.68045 
C          C       0.50215   0.56927   0.68045 
C          C       0.43073   0.93288   0.68045 
C          C       0.93288   0.50215   0.68045 
C          C       0.49785   0.43073   0.68045 
C          C       0.56927   0.06712   0.68045 
C          C       0.02673   0.56478   0.68129 
C          C       0.43522   0.46195   0.68129 
C          C       0.53805   0.97327   0.68129 
C          C       0.97327   0.43522   0.68129 
C          C       0.56478   0.53805   0.68129 
C          C       0.46195   0.02673   0.68129 
C          C       0.00889   0.44859   0.68083 
C          C       0.55141   0.56030   0.68083 
C          C       0.43970   0.99111   0.68083 
C          C       0.99111   0.55141   0.68083 
C          C       0.44859   0.43970   0.68083 
C          C       0.56030   0.00889   0.68083 
C          C       0.29686   0.64934   0.69256 
C          C       0.35066   0.64752   0.69256 
C          C       0.35248   0.70314   0.69256 
C          C       0.70314   0.35066   0.69256 
C          C       0.64934   0.35248   0.69256 
C          C       0.64752   0.29686   0.69256 
C          C       0.31629   0.68550   0.69262 
C          C       0.31450   0.63079   0.69262 
C          C       0.36921   0.68371   0.69262 
C          C       0.68371   0.31450   0.69262 
C          C       0.68550   0.36921   0.69262 
C          C       0.63079   0.31629   0.69262 
H          H       0.25367   0.67156   0.83300 
H          H       0.32844   0.58211   0.83300 
H          H       0.41789   0.74633   0.83300 
H          H       0.74633   0.32844   0.83300 
H          H       0.67156   0.41789   0.83300 
H          H       0.58211   0.25367   0.83300 
H          H       0.19103   0.64196   0.82186 
H          H       0.35804   0.54907   0.82186 
H          H       0.45093   0.80897   0.82186 
H          H       0.80897   0.35804   0.82186 
H          H       0.64196   0.45093   0.82186 
H          H       0.54907   0.19103   0.82186 
H          H       0.18897   0.55524   0.55445 
H          H       0.44476   0.63373   0.55445 
H          H       0.36627   0.81103   0.55445 
H          H       0.81103   0.44476   0.55445 
H          H       0.55524   0.36627   0.55445 
H          H       0.63373   0.18897   0.55445 
H          H       0.25108   0.58505   0.54887 
H          H       0.41495   0.66603   0.54887 
H          H       0.33397   0.74892   0.54887 
H          H       0.74892   0.41495   0.54887 
H          H       0.58505   0.33397   0.54887 
H          H       0.66603   0.25108   0.54887 
H          H       0.13630   0.52905   0.67481 
H          H       0.47095   0.60725   0.67481 
H          H       0.39275   0.86370   0.67481 
H          H       0.86370   0.47095   0.67481 
H          H       0.52905   0.39275   0.67481 
H          H       0.60725   0.13630   0.67481 
H          H       0.09326   0.58342   0.68190 
H          H       0.41658   0.50984   0.68190 
H          H       0.49016   0.90674   0.68190 
H          H       0.90674   0.41658   0.68190 
H          H       0.58342   0.49016   0.68190 
H          H       0.50984   0.09326   0.68190 
H          H       0.07750   0.48064   0.67999 
H          H       0.51936   0.59686   0.67999 
H          H       0.40314   0.92250   0.67999 
H          H       0.92250   0.51936   0.67999 
H          H       0.48064   0.40314   0.67999 
H          H       0.59686   0.07750   0.67999 
H          H       0.04363   0.59242   0.68143 
H          H       0.40758   0.45121   0.68143 
H          H       0.54879   0.95637   0.68143 
H          H       0.95637   0.40758   0.68143 
H          H       0.59242   0.54879   0.68143 
H          H       0.45121   0.04363   0.68143 
H          H       0.01887   0.43105   0.68061 
H          H       0.56895   0.58782   0.68061 
H          H       0.41218   0.98113   0.68061 
H          H       0.98113   0.56895   0.68061 
H          H       0.43105   0.41218   0.68061 
H          H       0.58782   0.01887   0.68061 
H          H       0.30315   0.70004   0.69258 
H          H       0.29996   0.60311   0.69258 
H          H       0.39689   0.69685   0.69258 
H          H       0.69685   0.29996   0.69258 
H          H       0.70004   0.39689   0.69258 
H          H       0.60311   0.30315   0.69258 
