data_crystal
 
_cell_length_a    43.80000
_cell_length_b    43.80000
_cell_length_c    7.40000
_cell_angle_alpha 90.00000
_cell_angle_beta  90.00000
_cell_angle_gamma 120.00000
 
_symmetry_space_group_name_Hall 'P 1'
_symmetry_space_group_name_H-M  'P 1'
 
loop_
_symmetry_equiv_pos_as_xyz
 'x,y,z' 
 
loop_
_atom_site_label
_atom_site_type_symbol
_atom_site_fract_x
_atom_site_fract_y
_atom_site_fract_z
C          C       0.70178   0.35152   0.24817 
C          C       0.64848   0.35026   0.24817 
C          C       0.64974   0.29822   0.24817 
C          C       0.29822   0.64848   0.24817 
C          C       0.35152   0.64974   0.24817 
C          C       0.35026   0.70178   0.24817 
C          C       0.68253   0.36630   0.24818 
C          C       0.63370   0.31623   0.24818 
C          C       0.68377   0.31747   0.24818 
C          C       0.31747   0.63370   0.24818 
C          C       0.36630   0.68377   0.24818 
C          C       0.31623   0.68253   0.24818 
C          C       0.74032   0.37227   0.25572 
C          C       0.62773   0.36805   0.25572 
C          C       0.63195   0.25968   0.25572 
C          C       0.25968   0.62773   0.25572 
C          C       0.37227   0.63195   0.25572 
C          C       0.36805   0.74032   0.25572 
C          C       0.75830   0.40338   0.19332 
C          C       0.59662   0.35492   0.19332 
C          C       0.64508   0.24170   0.19332 
C          C       0.24170   0.59662   0.19332 
C          C       0.40338   0.64508   0.19332 
C          C       0.35492   0.75830   0.19332 
C          C       0.79218   0.42125   0.18618 
C          C       0.57875   0.37093   0.18618 
C          C       0.62907   0.20782   0.18618 
C          C       0.20782   0.57875   0.18618 
C          C       0.42125   0.62907   0.18618 
C          C       0.37093   0.79218   0.18618 
C          C       0.81263   0.41056   0.24007 
C          C       0.58944   0.40207   0.24007 
C          C       0.59793   0.18737   0.24007 
C          C       0.18737   0.58944   0.24007 
C          C       0.41056   0.59793   0.24007 
C          C       0.40207   0.81263   0.24007 
C          C       0.79523   0.37948   0.30304 
C          C       0.62052   0.41575   0.30304 
C          C       0.58425   0.20477   0.30304 
C          C       0.20477   0.62052   0.30304 
C          C       0.37948   0.58425   0.30304 
C          C       0.41575   0.79523   0.30304 
C          C       0.76100   0.36142   0.31026 
C          C       0.63858   0.39958   0.31026 
C          C       0.60042   0.23900   0.31026 
C          C       0.23900   0.63858   0.31026 
C          C       0.36142   0.60042   0.31026 
C          C       0.39958   0.76100   0.31026 
N          N       0.84842   0.43201   0.24800 
N          N       0.56799   0.41641   0.24800 
N          N       0.58359   0.15158   0.24800 
N          N       0.15158   0.56799   0.24800 
N          N       0.43201   0.58359   0.24800 
N          N       0.41641   0.84842   0.24800 
C          C       0.87381   0.42824   0.24850 
C          C       0.57176   0.44557   0.24850 
C          C       0.55443   0.12619   0.24850 
C          C       0.12619   0.57176   0.24850 
C          C       0.42824   0.55443   0.24850 
C          C       0.44557   0.87381   0.24850 
C          C       0.91119   0.45365   0.24834 
C          C       0.54635   0.45754   0.24834 
C          C       0.54246   0.08881   0.24834 
C          C       0.08881   0.54635   0.24834 
C          C       0.45365   0.54246   0.24834 
C          C       0.45754   0.91119   0.24834 
S          S       0.93219   0.49697   0.24828 
S          S       0.50303   0.43522   0.24828 
S          S       0.56478   0.06781   0.24828 
S          S       0.06781   0.50303   0.24828 
S          S       0.49697   0.56478   0.24828 
S          S       0.43522   0.93219   0.24828 
C          C       0.97183   0.50124   0.24833 
C          C       0.49876   0.47059   0.24833 
C          C       0.52941   0.02817   0.24833 
C          C       0.02817   0.49876   0.24833 
C          C       0.50124   0.52941   0.24833 
C          C       0.47059   0.97183   0.24833 
C          C       0.96914   0.47245   0.24835 
C          C       0.52755   0.49669   0.24835 
C          C       0.50331   0.03086   0.24835 
C          C       0.03086   0.52755   0.24835 
C          C       0.47245   0.50331   0.24835 
C          C       0.49669   0.96914   0.24835 
C          C       0.93466   0.44621   0.24841 
C          C       0.55379   0.48845   0.24841 
C          C       0.51155   0.06534   0.24841 
C          C       0.06534   0.55379   0.24841 
C          C       0.44621   0.51155   0.24841 
C          C       0.48845   0.93466   0.24841 
C          C       0.00240   0.52908   0.24835 
C          C       0.47092   0.47332   0.24835 
C          C       0.52668   0.99760   0.24835 
C          C       0.99760   0.47092   0.24835 
C          C       0.52908   0.52668   0.24835 
C          C       0.47332   0.00240   0.24835 
H          H       0.69423   0.39324   0.24819 
H          H       0.60676   0.30099   0.24819 
H          H       0.69901   0.30577   0.24819 
H          H       0.30577   0.60676   0.24819 
H          H       0.39324   0.69901   0.24819 
H          H       0.30099   0.69423   0.24819 
H          H       0.74375   0.41427   0.14610 
H          H       0.58573   0.32948   0.14610 
H          H       0.67052   0.25625   0.14610 
H          H       0.25625   0.58573   0.14610 
H          H       0.41427   0.67052   0.14610 
H          H       0.32948   0.74375   0.14610 
H          H       0.80462   0.44637   0.13329 
H          H       0.55363   0.35825   0.13329 
H          H       0.64175   0.19538   0.13329 
H          H       0.19538   0.55363   0.13329 
H          H       0.44637   0.64175   0.13329 
H          H       0.35825   0.80462   0.13329 
H          H       0.80812   0.36702   0.35249 
H          H       0.63298   0.44110   0.35249 
H          H       0.55890   0.19188   0.35249 
H          H       0.19188   0.63298   0.35249 
H          H       0.36702   0.55890   0.35249 
H          H       0.44110   0.80812   0.35249 
H          H       0.74856   0.33630   0.36312 
H          H       0.66370   0.41226   0.36312 
H          H       0.58774   0.25144   0.36312 
H          H       0.25144   0.66370   0.36312 
H          H       0.33630   0.58774   0.36312 
H          H       0.41226   0.74856   0.36312 
H          H       0.87059   0.40340   0.24916 
H          H       0.59660   0.46719   0.24916 
H          H       0.53281   0.12941   0.24916 
H          H       0.12941   0.59660   0.24916 
H          H       0.40340   0.53281   0.24916 
H          H       0.46719   0.87059   0.24916 
H          H       0.92848   0.42034   0.24851 
H          H       0.57966   0.50814   0.24851 
H          H       0.49186   0.07152   0.24851 
H          H       0.07152   0.57966   0.24851 
H          H       0.42034   0.49186   0.24851 
H          H       0.50814   0.92848   0.24851 
O          O       0.44263   0.00260   0.24277 
O          O       0.99740   0.44003   0.24277 
O          O       0.55997   0.55737   0.24277 
O          O       0.55737   0.99740   0.24277 
O          O       0.00260   0.55997   0.24277 
O          O       0.44003   0.44263   0.24277 
C          C       0.44564   0.03340   0.18557 
C          C       0.96660   0.41224   0.18557 
C          C       0.58776   0.55436   0.18557 
C          C       0.55436   0.96660   0.18557 
C          C       0.03340   0.58776   0.18557 
C          C       0.41224   0.44564   0.18557 
H          H       0.45538   0.03878   0.05182 
H          H       0.96122   0.41660   0.05182 
H          H       0.58340   0.54462   0.05182 
H          H       0.54462   0.96122   0.05182 
H          H       0.03878   0.58340   0.05182 
H          H       0.41660   0.45538   0.05182 
H          H       0.46248   0.05328   0.27301 
H          H       0.94672   0.40920   0.27301 
H          H       0.59080   0.53752   0.27301 
H          H       0.53752   0.94672   0.27301 
H          H       0.05328   0.59080   0.27301 
H          H       0.40920   0.46248   0.27301 
H          H       0.42135   0.03149   0.18850 
H          H       0.96851   0.38986   0.18850 
H          H       0.61014   0.57865   0.18850 
H          H       0.57865   0.96851   0.18850 
H          H       0.03149   0.61014   0.18850 
H          H       0.38986   0.42135   0.18850 
C          C       0.70178   0.35152   0.74817 
C          C       0.64848   0.35026   0.74817 
C          C       0.64974   0.29822   0.74817 
C          C       0.29822   0.64848   0.74817 
C          C       0.35152   0.64974   0.74817 
C          C       0.35026   0.70178   0.74817 
C          C       0.68253   0.36630   0.74818 
C          C       0.63370   0.31623   0.74818 
C          C       0.68377   0.31747   0.74818 
C          C       0.31747   0.63370   0.74818 
C          C       0.36630   0.68377   0.74818 
C          C       0.31623   0.68253   0.74818 
C          C       0.74032   0.37227   0.75572 
C          C       0.62773   0.36805   0.75572 
C          C       0.63195   0.25968   0.75572 
C          C       0.25968   0.62773   0.75572 
C          C       0.37227   0.63195   0.75572 
C          C       0.36805   0.74032   0.75572 
C          C       0.75830   0.40338   0.69332 
C          C       0.59662   0.35492   0.69332 
C          C       0.64508   0.24170   0.69332 
C          C       0.24170   0.59662   0.69332 
C          C       0.40338   0.64508   0.69332 
C          C       0.35492   0.75830   0.69332 
C          C       0.79218   0.42125   0.68618 
C          C       0.57875   0.37093   0.68618 
C          C       0.62907   0.20782   0.68618 
C          C       0.20782   0.57875   0.68618 
C          C       0.42125   0.62907   0.68618 
C          C       0.37093   0.79218   0.68618 
C          C       0.81263   0.41056   0.74007 
C          C       0.58944   0.40207   0.74007 
C          C       0.59793   0.18737   0.74007 
C          C       0.18737   0.58944   0.74007 
C          C       0.41056   0.59793   0.74007 
C          C       0.40207   0.81263   0.74007 
C          C       0.79523   0.37948   0.80304 
C          C       0.62052   0.41575   0.80304 
C          C       0.58425   0.20477   0.80304 
C          C       0.20477   0.62052   0.80304 
C          C       0.37948   0.58425   0.80304 
C          C       0.41575   0.79523   0.80304 
C          C       0.76100   0.36142   0.81026 
C          C       0.63858   0.39958   0.81026 
C          C       0.60042   0.23900   0.81026 
C          C       0.23900   0.63858   0.81026 
C          C       0.36142   0.60042   0.81026 
C          C       0.39958   0.76100   0.81026 
N          N       0.84842   0.43201   0.74800 
N          N       0.56799   0.41641   0.74800 
N          N       0.58359   0.15158   0.74800 
N          N       0.15158   0.56799   0.74800 
N          N       0.43201   0.58359   0.74800 
N          N       0.41641   0.84842   0.74800 
C          C       0.87381   0.42824   0.74850 
C          C       0.57176   0.44557   0.74850 
C          C       0.55443   0.12619   0.74850 
C          C       0.12619   0.57176   0.74850 
C          C       0.42824   0.55443   0.74850 
C          C       0.44557   0.87381   0.74850 
C          C       0.91119   0.45365   0.74834 
C          C       0.54635   0.45754   0.74834 
C          C       0.54246   0.08881   0.74834 
C          C       0.08881   0.54635   0.74834 
C          C       0.45365   0.54246   0.74834 
C          C       0.45754   0.91119   0.74834 
S          S       0.93219   0.49697   0.74828 
S          S       0.50303   0.43522   0.74828 
S          S       0.56478   0.06781   0.74828 
S          S       0.06781   0.50303   0.74828 
S          S       0.49697   0.56478   0.74828 
S          S       0.43522   0.93219   0.74828 
C          C       0.97183   0.50124   0.74833 
C          C       0.49876   0.47059   0.74833 
C          C       0.52941   0.02817   0.74833 
C          C       0.02817   0.49876   0.74833 
C          C       0.50124   0.52941   0.74833 
C          C       0.47059   0.97183   0.74833 
C          C       0.96914   0.47245   0.74835 
C          C       0.52755   0.49669   0.74835 
C          C       0.50331   0.03086   0.74835 
C          C       0.03086   0.52755   0.74835 
C          C       0.47245   0.50331   0.74835 
C          C       0.49669   0.96914   0.74835 
C          C       0.93466   0.44621   0.74841 
C          C       0.55379   0.48845   0.74841 
C          C       0.51155   0.06534   0.74841 
C          C       0.06534   0.55379   0.74841 
C          C       0.44621   0.51155   0.74841 
C          C       0.48845   0.93466   0.74841 
C          C       0.00240   0.52908   0.74835 
C          C       0.47092   0.47332   0.74835 
C          C       0.52668   0.99760   0.74835 
C          C       0.99760   0.47092   0.74835 
C          C       0.52908   0.52668   0.74835 
C          C       0.47332   0.00240   0.74835 
H          H       0.69423   0.39324   0.74819 
H          H       0.60676   0.30099   0.74819 
H          H       0.69901   0.30577   0.74819 
H          H       0.30577   0.60676   0.74819 
H          H       0.39324   0.69901   0.74819 
H          H       0.30099   0.69423   0.74819 
H          H       0.74375   0.41427   0.64609 
H          H       0.58573   0.32948   0.64609 
H          H       0.67052   0.25625   0.64609 
H          H       0.25625   0.58573   0.64609 
H          H       0.41427   0.67052   0.64609 
H          H       0.32948   0.74375   0.64609 
H          H       0.80462   0.44637   0.63329 
H          H       0.55363   0.35825   0.63329 
H          H       0.64175   0.19538   0.63329 
H          H       0.19538   0.55363   0.63329 
H          H       0.44637   0.64175   0.63329 
H          H       0.35825   0.80462   0.63329 
H          H       0.80812   0.36702   0.85249 
H          H       0.63298   0.44110   0.85249 
H          H       0.55890   0.19188   0.85249 
H          H       0.19188   0.63298   0.85249 
H          H       0.36702   0.55890   0.85249 
H          H       0.44110   0.80812   0.85249 
H          H       0.74856   0.33630   0.86312 
H          H       0.66370   0.41226   0.86312 
H          H       0.58774   0.25144   0.86312 
H          H       0.25144   0.66370   0.86312 
H          H       0.33630   0.58774   0.86312 
H          H       0.41226   0.74856   0.86312 
H          H       0.87059   0.40340   0.74916 
H          H       0.59660   0.46719   0.74916 
H          H       0.53281   0.12941   0.74916 
H          H       0.12941   0.59660   0.74916 
H          H       0.40340   0.53281   0.74916 
H          H       0.46719   0.87059   0.74916 
H          H       0.92848   0.42034   0.74851 
H          H       0.57966   0.50814   0.74851 
H          H       0.49186   0.07152   0.74851 
H          H       0.07152   0.57966   0.74851 
H          H       0.42034   0.49186   0.74851 
H          H       0.50814   0.92848   0.74851 
O          O       0.44263   0.00260   0.74277 
O          O       0.99740   0.44003   0.74277 
O          O       0.55997   0.55737   0.74277 
O          O       0.55737   0.99740   0.74277 
O          O       0.00260   0.55997   0.74277 
O          O       0.44003   0.44263   0.74277 
C          C       0.44564   0.03340   0.68557 
C          C       0.96660   0.41224   0.68557 
C          C       0.58776   0.55436   0.68557 
C          C       0.55436   0.96660   0.68557 
C          C       0.03340   0.58776   0.68557 
C          C       0.41224   0.44564   0.68557 
H          H       0.45538   0.03878   0.55182 
H          H       0.96122   0.41660   0.55182 
H          H       0.58340   0.54462   0.55182 
H          H       0.54462   0.96122   0.55182 
H          H       0.03878   0.58340   0.55182 
H          H       0.41660   0.45538   0.55182 
H          H       0.46248   0.05328   0.77301 
H          H       0.94672   0.40920   0.77301 
H          H       0.59080   0.53752   0.77301 
H          H       0.53752   0.94672   0.77301 
H          H       0.05328   0.59080   0.77301 
H          H       0.40920   0.46248   0.77301 
H          H       0.42135   0.03149   0.68850 
H          H       0.96851   0.38986   0.68850 
H          H       0.61014   0.57865   0.68850 
H          H       0.57865   0.96851   0.68850 
H          H       0.03149   0.61014   0.68850 
H          H       0.38986   0.42135   0.68850 
