data_crystal

_cell_length_a    43.60000
_cell_length_b    43.60000
_cell_length_c    7.20000
_cell_angle_alpha 90.00000
_cell_angle_beta  90.00000
_cell_angle_gamma 120.00000

_space_group_name_Hall 'P 1'
_space_group_name_H-M_alt  'P 1'

loop_
_symmetry_equiv_pos_as_xyz
'x,y,z' 

loop_
_atom_site_label
_atom_site_type_symbol
_atom_site_fract_x
_atom_site_fract_y
_atom_site_fract_z
C          C       0.70311   0.35319   0.23434 
C          C       0.64681   0.34992   0.23434 
C          C       0.65008   0.29689   0.23434 
C          C       0.29689   0.64681   0.23434 
C          C       0.35319   0.65008   0.23434 
C          C       0.34992   0.70311   0.23434 
C          C       0.68300   0.36922   0.23419 
C          C       0.63078   0.31378   0.23419 
C          C       0.68622   0.31700   0.23419 
C          C       0.31700   0.63078   0.23419 
C          C       0.36922   0.68622   0.23419 
C          C       0.31378   0.68300   0.23419 
C          C       0.74163   0.37418   0.23575 
C          C       0.62582   0.36745   0.23575 
C          C       0.63255   0.25837   0.23575 
C          C       0.25837   0.62582   0.23575 
C          C       0.37418   0.63255   0.23575 
C          C       0.36745   0.74163   0.23575 
C          C       0.75900   0.40745   0.15882 
C          C       0.59255   0.35155   0.15882 
C          C       0.64845   0.24100   0.15882 
C          C       0.24100   0.59255   0.15882 
C          C       0.40745   0.64845   0.15882 
C          C       0.35155   0.75900   0.15882 
C          C       0.79494   0.42718   0.16360 
C          C       0.57282   0.36776   0.16360 
C          C       0.63224   0.20506   0.16360 
C          C       0.20506   0.57282   0.16360 
C          C       0.42718   0.63224   0.16360 
C          C       0.36776   0.79494   0.16360 
C          C       0.81448   0.41396   0.23908 
C          C       0.58604   0.40052   0.23908 
C          C       0.59948   0.18552   0.23908 
C          C       0.18552   0.58604   0.23908 
C          C       0.41396   0.59948   0.23908 
C          C       0.40052   0.81448   0.23908 
C          C       0.79755   0.38083   0.31575 
C          C       0.61917   0.41672   0.31575 
C          C       0.58328   0.20245   0.31575 
C          C       0.20245   0.61917   0.31575 
C          C       0.38083   0.58328   0.31575 
C          C       0.41672   0.79755   0.31575 
C          C       0.76158   0.36132   0.31549 
C          C       0.63868   0.40026   0.31549 
C          C       0.59974   0.23842   0.31549 
C          C       0.23842   0.63868   0.31549 
C          C       0.36132   0.59974   0.31549 
C          C       0.40026   0.76158   0.31549 
N          N       0.85124   0.43544   0.24077 
N          N       0.56456   0.41580   0.24077 
N          N       0.58420   0.14876   0.24077 
N          N       0.14876   0.56456   0.24077 
N          N       0.43544   0.58420   0.24077 
N          N       0.41580   0.85124   0.24077 
C          C       0.87340   0.42504   0.25924 
C          C       0.57496   0.44836   0.25924 
C          C       0.55164   0.12660   0.25924 
C          C       0.12660   0.57496   0.25924 
C          C       0.42504   0.55164   0.25924 
C          C       0.44836   0.87340   0.25924 
C          C       0.91049   0.45009   0.26059 
C          C       0.54991   0.46040   0.26059 
C          C       0.53960   0.08951   0.26059 
C          C       0.08951   0.54991   0.26059 
C          C       0.45009   0.53960   0.26059 
C          C       0.46040   0.91049   0.26059 
S          S       0.92755   0.49648   0.25953 
S          S       0.50352   0.43107   0.25953 
S          S       0.56893   0.07245   0.25953 
S          S       0.07245   0.50352   0.25953 
S          S       0.49648   0.56893   0.25953 
S          S       0.43107   0.92755   0.25953 
C          C       0.96951   0.50076   0.26231 
C          C       0.49924   0.46875   0.26231 
C          C       0.53125   0.03049   0.26231 
C          C       0.03049   0.49924   0.26231 
C          C       0.50076   0.53125   0.26231 
C          C       0.46875   0.96951   0.26231 
C          C       0.96887   0.46952   0.26306 
C          C       0.53048   0.49935   0.26306 
C          C       0.50065   0.03113   0.26306 
C          C       0.03113   0.53048   0.26306 
C          C       0.46952   0.50065   0.26306 
C          C       0.49935   0.96887   0.26306 
C          C       0.93413   0.44040   0.26279 
C          C       0.55960   0.49373   0.26279 
C          C       0.50627   0.06587   0.26279 
C          C       0.06587   0.55960   0.26279 
C          C       0.44040   0.50627   0.26279 
C          C       0.49373   0.93413   0.26279 
C          C       0.00067   0.53196   0.26275 
C          C       0.46804   0.46871   0.26275 
C          C       0.53129   0.99933   0.26275 
C          C       0.99933   0.46804   0.26275 
C          C       0.53196   0.53129   0.26275 
C          C       0.46871   0.00067   0.26275 
H          H       0.69560   0.39693   0.23442 
H          H       0.60307   0.29867   0.23442 
H          H       0.70133   0.30440   0.23442 
H          H       0.30440   0.60307   0.23442 
H          H       0.39693   0.70133   0.23442 
H          H       0.29867   0.69560   0.23442 
H          H       0.74511   0.41806   0.08965 
H          H       0.58194   0.32705   0.08965 
H          H       0.67295   0.25489   0.08965 
H          H       0.25489   0.58194   0.08965 
H          H       0.41806   0.67295   0.08965 
H          H       0.32705   0.74511   0.08965 
H          H       0.80795   0.45264   0.10348 
H          H       0.54736   0.35531   0.10348 
H          H       0.64469   0.19205   0.10348 
H          H       0.19205   0.54736   0.10348 
H          H       0.45264   0.64469   0.10348 
H          H       0.35531   0.80795   0.10348 
H          H       0.81186   0.37056   0.38335 
H          H       0.62944   0.44130   0.38335 
H          H       0.55870   0.18814   0.38335 
H          H       0.18814   0.62944   0.38335 
H          H       0.37056   0.55870   0.38335 
H          H       0.44130   0.81186   0.38335 
H          H       0.74956   0.33676   0.38471 
H          H       0.66324   0.41280   0.38471 
H          H       0.58720   0.25044   0.38471 
H          H       0.25044   0.66324   0.38471 
H          H       0.33676   0.58720   0.38471 
H          H       0.41280   0.74956   0.38471 
H          H       0.86512   0.39792   0.26838 
H          H       0.60208   0.46720   0.26838 
H          H       0.53280   0.13488   0.26838 
H          H       0.13488   0.60208   0.26838 
H          H       0.39792   0.53280   0.26838 
H          H       0.46720   0.86512   0.26838 
H          H       0.92813   0.41383   0.26349 
H          H       0.58617   0.51430   0.26349 
H          H       0.48570   0.07187   0.26349 
H          H       0.07187   0.58617   0.26349 
H          H       0.41383   0.48570   0.26349 
H          H       0.51430   0.92813   0.26349 
H          H       0.00097   0.55622   0.26232 
H          H       0.44378   0.44475   0.26232 
H          H       0.55525   0.99903   0.26232 
H          H       0.99903   0.44378   0.26232 
H          H       0.55622   0.55525   0.26232 
H          H       0.44475   0.00097   0.26232 
C          C       0.70311   0.35319   0.73435 
C          C       0.64681   0.34992   0.73435 
C          C       0.65008   0.29689   0.73435 
C          C       0.29689   0.64681   0.73435 
C          C       0.35319   0.65008   0.73435 
C          C       0.34992   0.70311   0.73435 
C          C       0.68300   0.36922   0.73419 
C          C       0.63078   0.31378   0.73419 
C          C       0.68622   0.31700   0.73419 
C          C       0.31700   0.63078   0.73419 
C          C       0.36922   0.68622   0.73419 
C          C       0.31378   0.68300   0.73419 
C          C       0.74163   0.37418   0.73576 
C          C       0.62582   0.36745   0.73576 
C          C       0.63255   0.25837   0.73576 
C          C       0.25837   0.62582   0.73576 
C          C       0.37418   0.63255   0.73576 
C          C       0.36745   0.74163   0.73576 
C          C       0.75900   0.40745   0.65882 
C          C       0.59255   0.35155   0.65882 
C          C       0.64845   0.24100   0.65882 
C          C       0.24100   0.59255   0.65882 
C          C       0.40745   0.64845   0.65882 
C          C       0.35155   0.75900   0.65882 
C          C       0.79494   0.42718   0.66360 
C          C       0.57282   0.36776   0.66360 
C          C       0.63224   0.20506   0.66360 
C          C       0.20506   0.57282   0.66360 
C          C       0.42718   0.63224   0.66360 
C          C       0.36776   0.79494   0.66360 
C          C       0.81448   0.41396   0.73908 
C          C       0.58604   0.40052   0.73908 
C          C       0.59948   0.18552   0.73908 
C          C       0.18552   0.58604   0.73908 
C          C       0.41396   0.59948   0.73908 
C          C       0.40052   0.81448   0.73908 
C          C       0.79755   0.38083   0.81575 
C          C       0.61917   0.41672   0.81575 
C          C       0.58328   0.20245   0.81575 
C          C       0.20245   0.61917   0.81575 
C          C       0.38083   0.58328   0.81575 
C          C       0.41672   0.79755   0.81575 
C          C       0.76158   0.36132   0.81549 
C          C       0.63868   0.40026   0.81549 
C          C       0.59974   0.23842   0.81549 
C          C       0.23842   0.63868   0.81549 
C          C       0.36132   0.59974   0.81549 
C          C       0.40026   0.76158   0.81549 
N          N       0.85124   0.43544   0.74077 
N          N       0.56456   0.41580   0.74077 
N          N       0.58420   0.14876   0.74077 
N          N       0.14876   0.56456   0.74077 
N          N       0.43544   0.58420   0.74077 
N          N       0.41580   0.85124   0.74077 
C          C       0.87340   0.42504   0.75924 
C          C       0.57496   0.44836   0.75924 
C          C       0.55164   0.12660   0.75924 
C          C       0.12660   0.57496   0.75924 
C          C       0.42504   0.55164   0.75924 
C          C       0.44836   0.87340   0.75924 
C          C       0.91049   0.45009   0.76059 
C          C       0.54991   0.46040   0.76059 
C          C       0.53960   0.08951   0.76059 
C          C       0.08951   0.54991   0.76059 
C          C       0.45009   0.53960   0.76059 
C          C       0.46040   0.91049   0.76059 
S          S       0.92755   0.49648   0.75953 
S          S       0.50352   0.43107   0.75953 
S          S       0.56893   0.07245   0.75953 
S          S       0.07245   0.50352   0.75953 
S          S       0.49648   0.56893   0.75953 
S          S       0.43107   0.92755   0.75953 
C          C       0.96951   0.50076   0.76231 
C          C       0.49924   0.46875   0.76231 
C          C       0.53125   0.03049   0.76231 
C          C       0.03049   0.49924   0.76231 
C          C       0.50076   0.53125   0.76231 
C          C       0.46875   0.96951   0.76231 
C          C       0.96887   0.46952   0.76306 
C          C       0.53048   0.49935   0.76306 
C          C       0.50065   0.03113   0.76306 
C          C       0.03113   0.53048   0.76306 
C          C       0.46952   0.50065   0.76306 
C          C       0.49935   0.96887   0.76306 
C          C       0.93413   0.44040   0.76279 
C          C       0.55960   0.49373   0.76279 
C          C       0.50627   0.06587   0.76279 
C          C       0.06587   0.55960   0.76279 
C          C       0.44040   0.50627   0.76279 
C          C       0.49373   0.93413   0.76279 
C          C       0.00067   0.53196   0.76275 
C          C       0.46804   0.46871   0.76275 
C          C       0.53129   0.99933   0.76275 
C          C       0.99933   0.46804   0.76275 
C          C       0.53196   0.53129   0.76275 
C          C       0.46871   0.00067   0.76275 
H          H       0.69560   0.39693   0.73442 
H          H       0.60307   0.29867   0.73442 
H          H       0.70133   0.30440   0.73442 
H          H       0.30440   0.60307   0.73442 
H          H       0.39693   0.70133   0.73442 
H          H       0.29867   0.69560   0.73442 
H          H       0.74511   0.41806   0.58965 
H          H       0.58194   0.32705   0.58965 
H          H       0.67295   0.25489   0.58965 
H          H       0.25489   0.58194   0.58965 
H          H       0.41806   0.67295   0.58965 
H          H       0.32705   0.74511   0.58965 
H          H       0.80795   0.45264   0.60348 
H          H       0.54736   0.35531   0.60348 
H          H       0.64469   0.19205   0.60348 
H          H       0.19205   0.54736   0.60348 
H          H       0.45264   0.64469   0.60348 
H          H       0.35531   0.80795   0.60348 
H          H       0.81186   0.37056   0.88335 
H          H       0.62944   0.44130   0.88335 
H          H       0.55870   0.18814   0.88335 
H          H       0.18814   0.62944   0.88335 
H          H       0.37056   0.55870   0.88335 
H          H       0.44130   0.81186   0.88335 
H          H       0.74956   0.33676   0.88472 
H          H       0.66324   0.41280   0.88472 
H          H       0.58720   0.25044   0.88472 
H          H       0.25044   0.66324   0.88472 
H          H       0.33676   0.58720   0.88472 
H          H       0.41280   0.74956   0.88472 
H          H       0.86512   0.39792   0.76838 
H          H       0.60208   0.46720   0.76838 
H          H       0.53280   0.13488   0.76838 
H          H       0.13488   0.60208   0.76838 
H          H       0.39792   0.53280   0.76838 
H          H       0.46720   0.86512   0.76838 
H          H       0.92813   0.41383   0.76349 
H          H       0.58617   0.51430   0.76349 
H          H       0.48570   0.07187   0.76349 
H          H       0.07187   0.58617   0.76349 
H          H       0.41383   0.48570   0.76349 
H          H       0.51430   0.92813   0.76349 
H          H       0.00097   0.55622   0.76232 
H          H       0.44378   0.44475   0.76232 
H          H       0.55525   0.99903   0.76232 
H          H       0.99903   0.44378   0.76232 
H          H       0.55622   0.55525   0.76232 
H          H       0.44475   0.00097   0.76232 
