data_crystal
 
_cell_length_a    42.40000
_cell_length_b    42.40000
_cell_length_c    7.80000
_cell_angle_alpha 90.00000
_cell_angle_beta  90.00000
_cell_angle_gamma 120.00000
 
_symmetry_space_group_name_Hall 'P 1'
_symmetry_space_group_name_H-M  'P 1'
 
loop_
_symmetry_equiv_pos_as_xyz
 'x,y,z' 
 
loop_
_atom_site_label
_atom_site_type_symbol
_atom_site_fract_x
_atom_site_fract_y
_atom_site_fract_z
C          C       0.70178   0.35152   0.24818 
C          C       0.64848   0.35026   0.24818 
C          C       0.64974   0.29822   0.24818 
C          C       0.29822   0.64848   0.24818 
C          C       0.35152   0.64974   0.24818 
C          C       0.35026   0.70178   0.24818 
C          C       0.68253   0.36630   0.24818 
C          C       0.63370   0.31623   0.24818 
C          C       0.68377   0.31747   0.24818 
C          C       0.31747   0.63370   0.24818 
C          C       0.36630   0.68377   0.24818 
C          C       0.31623   0.68253   0.24818 
C          C       0.74032   0.37227   0.25572 
C          C       0.62773   0.36805   0.25572 
C          C       0.63195   0.25968   0.25572 
C          C       0.25968   0.62773   0.25572 
C          C       0.37227   0.63195   0.25572 
C          C       0.36805   0.74032   0.25572 
C          C       0.75830   0.40338   0.19332 
C          C       0.59662   0.35492   0.19332 
C          C       0.64508   0.24170   0.19332 
C          C       0.24170   0.59662   0.19332 
C          C       0.40338   0.64508   0.19332 
C          C       0.35492   0.75830   0.19332 
C          C       0.79218   0.42125   0.18619 
C          C       0.57875   0.37093   0.18619 
C          C       0.62907   0.20782   0.18619 
C          C       0.20782   0.57875   0.18619 
C          C       0.42125   0.62907   0.18619 
C          C       0.37093   0.79218   0.18619 
C          C       0.81263   0.41056   0.24008 
C          C       0.58944   0.40207   0.24008 
C          C       0.59793   0.18737   0.24008 
C          C       0.18737   0.58944   0.24008 
C          C       0.41056   0.59793   0.24008 
C          C       0.40207   0.81263   0.24008 
C          C       0.79523   0.37948   0.30304 
C          C       0.62052   0.41575   0.30304 
C          C       0.58425   0.20477   0.30304 
C          C       0.20477   0.62052   0.30304 
C          C       0.37948   0.58425   0.30304 
C          C       0.41575   0.79523   0.30304 
C          C       0.76100   0.36142   0.31027 
C          C       0.63858   0.39958   0.31027 
C          C       0.60042   0.23900   0.31027 
C          C       0.23900   0.63858   0.31027 
C          C       0.36142   0.60042   0.31027 
C          C       0.39958   0.76100   0.31027 
N          N       0.84842   0.43201   0.24801 
N          N       0.56799   0.41641   0.24801 
N          N       0.58359   0.15158   0.24801 
N          N       0.15158   0.56799   0.24801 
N          N       0.43201   0.58359   0.24801 
N          N       0.41641   0.84842   0.24801 
C          C       0.87381   0.42824   0.24850 
C          C       0.57176   0.44557   0.24850 
C          C       0.55443   0.12619   0.24850 
C          C       0.12619   0.57176   0.24850 
C          C       0.42824   0.55443   0.24850 
C          C       0.44557   0.87381   0.24850 
C          C       0.91119   0.45365   0.24834 
C          C       0.54635   0.45754   0.24834 
C          C       0.54246   0.08881   0.24834 
C          C       0.08881   0.54635   0.24834 
C          C       0.45365   0.54246   0.24834 
C          C       0.45754   0.91119   0.24834 
S          S       0.93219   0.49697   0.24828 
S          S       0.50303   0.43522   0.24828 
S          S       0.56478   0.06781   0.24828 
S          S       0.06781   0.50303   0.24828 
S          S       0.49697   0.56478   0.24828 
S          S       0.43522   0.93219   0.24828 
C          C       0.97183   0.50124   0.24833 
C          C       0.49876   0.47059   0.24833 
C          C       0.52941   0.02817   0.24833 
C          C       0.02817   0.49876   0.24833 
C          C       0.50124   0.52941   0.24833 
C          C       0.47059   0.97183   0.24833 
C          C       0.96914   0.47245   0.24835 
C          C       0.52755   0.49669   0.24835 
C          C       0.50331   0.03086   0.24835 
C          C       0.03086   0.52755   0.24835 
C          C       0.47245   0.50331   0.24835 
C          C       0.49669   0.96914   0.24835 
C          C       0.93466   0.44621   0.24841 
C          C       0.55379   0.48845   0.24841 
C          C       0.51155   0.06534   0.24841 
C          C       0.06534   0.55379   0.24841 
C          C       0.44621   0.51155   0.24841 
C          C       0.48845   0.93466   0.24841 
C          C       0.00240   0.52908   0.24835 
C          C       0.47092   0.47332   0.24835 
C          C       0.52668   0.99760   0.24835 
C          C       0.99760   0.47092   0.24835 
C          C       0.52908   0.52668   0.24835 
C          C       0.47332   0.00240   0.24835 
H          H       0.69531   0.39573   0.24819 
H          H       0.60427   0.29958   0.24819 
H          H       0.70042   0.30469   0.24819 
H          H       0.30469   0.60427   0.24819 
H          H       0.39573   0.70042   0.24819 
H          H       0.29958   0.69531   0.24819 
H          H       0.74236   0.41497   0.14248 
H          H       0.58503   0.32739   0.14248 
H          H       0.67261   0.25764   0.14248 
H          H       0.25764   0.58503   0.14248 
H          H       0.41497   0.67261   0.14248 
H          H       0.32739   0.74236   0.14248 
H          H       0.80571   0.44839   0.12915 
H          H       0.55161   0.35732   0.12915 
H          H       0.64268   0.19429   0.12915 
H          H       0.19429   0.55161   0.12915 
H          H       0.44839   0.64268   0.12915 
H          H       0.35732   0.80571   0.12915 
H          H       0.80948   0.36627   0.35615 
H          H       0.63373   0.44321   0.35615 
H          H       0.55679   0.19052   0.35615 
H          H       0.19052   0.63373   0.35615 
H          H       0.36627   0.55679   0.35615 
H          H       0.44321   0.80948   0.35615 
H          H       0.74747   0.33428   0.36727 
H          H       0.66572   0.41319   0.36727 
H          H       0.58681   0.25253   0.36727 
H          H       0.25253   0.66572   0.36727 
H          H       0.33428   0.58681   0.36727 
H          H       0.41319   0.74747   0.36727 
H          H       0.87029   0.40110   0.24923 
H          H       0.59890   0.46919   0.24923 
H          H       0.53081   0.12971   0.24923 
H          H       0.12971   0.59890   0.24923 
H          H       0.40110   0.53081   0.24923 
H          H       0.46919   0.87029   0.24923 
H          H       0.92791   0.41795   0.24853 
H          H       0.58205   0.50996   0.24853 
H          H       0.49004   0.07209   0.24853 
H          H       0.07209   0.58205   0.24853 
H          H       0.41795   0.49004   0.24853 
H          H       0.50996   0.92791   0.24853 
O          O       0.44263   0.00260   0.24277 
O          O       0.99740   0.44003   0.24277 
O          O       0.55997   0.55737   0.24277 
O          O       0.55737   0.99740   0.24277 
O          O       0.00260   0.55997   0.24277 
O          O       0.44003   0.44263   0.24277 
C          C       0.44564   0.03340   0.18557 
C          C       0.96660   0.41224   0.18557 
C          C       0.58776   0.55436   0.18557 
C          C       0.55436   0.96660   0.18557 
C          C       0.03340   0.58776   0.18557 
C          C       0.41224   0.44564   0.18557 
C          C       0.41577   0.03512   0.17727 
C          C       0.96488   0.38065   0.17727 
C          C       0.61935   0.58423   0.17727 
C          C       0.58423   0.96488   0.17727 
C          C       0.03512   0.61935   0.17727 
C          C       0.38065   0.41577   0.17727 
H          H       0.45774   0.03894   0.05334 
H          H       0.96106   0.41880   0.05334 
H          H       0.58120   0.54226   0.05334 
H          H       0.54226   0.96106   0.05334 
H          H       0.03894   0.58120   0.05334 
H          H       0.41880   0.45774   0.05334 
H          H       0.46372   0.05541   0.27344 
H          H       0.94459   0.40831   0.27344 
H          H       0.59169   0.53628   0.27344 
H          H       0.53628   0.94459   0.27344 
H          H       0.05541   0.59169   0.27344 
H          H       0.40831   0.46372   0.27344 
H          H       0.41143   0.04076   0.04083 
H          H       0.95924   0.37067   0.04083 
H          H       0.62933   0.58857   0.04083 
H          H       0.58857   0.95924   0.04083 
H          H       0.04076   0.62933   0.04083 
H          H       0.37067   0.41143   0.04083 
H          H       0.41819   0.05668   0.26425 
H          H       0.94332   0.36151   0.26425 
H          H       0.63849   0.58181   0.26425 
H          H       0.58181   0.94332   0.26425 
H          H       0.05668   0.63849   0.26425 
H          H       0.36151   0.41819   0.26425 
C          C       0.62725   0.62201   0.18362 
C          C       0.37799   0.00524   0.18362 
C          C       0.99476   0.37275   0.18362 
C          C       0.37275   0.37799   0.18362 
C          C       0.62201   0.99476   0.18362 
C          C       0.00524   0.62725   0.18362 
H          H       0.63830   0.63504   0.05401 
H          H       0.36496   0.00326   0.05401 
H          H       0.99674   0.36170   0.05401 
H          H       0.36170   0.36496   0.05401 
H          H       0.63504   0.99674   0.05401 
H          H       0.00326   0.63830   0.05401 
H          H       0.64692   0.63650   0.29017 
H          H       0.36350   0.01042   0.29017 
H          H       0.98958   0.35308   0.29017 
H          H       0.35308   0.36350   0.29017 
H          H       0.63650   0.98958   0.29017 
H          H       0.01042   0.64692   0.29017 
H          H       0.60237   0.62247   0.21140 
H          H       0.37753   0.97990   0.21140 
H          H       0.02010   0.39763   0.21140 
H          H       0.39763   0.37753   0.21140 
H          H       0.62247   0.02010   0.21140 
H          H       0.97990   0.60237   0.21140 
C          C       0.70178   0.35152   0.74818 
C          C       0.64848   0.35026   0.74818 
C          C       0.64974   0.29822   0.74818 
C          C       0.29822   0.64848   0.74818 
C          C       0.35152   0.64974   0.74818 
C          C       0.35026   0.70178   0.74818 
C          C       0.68253   0.36630   0.74818 
C          C       0.63370   0.31623   0.74818 
C          C       0.68377   0.31747   0.74818 
C          C       0.31747   0.63370   0.74818 
C          C       0.36630   0.68377   0.74818 
C          C       0.31623   0.68253   0.74818 
C          C       0.74032   0.37227   0.75572 
C          C       0.62773   0.36805   0.75572 
C          C       0.63195   0.25968   0.75572 
C          C       0.25968   0.62773   0.75572 
C          C       0.37227   0.63195   0.75572 
C          C       0.36805   0.74032   0.75572 
C          C       0.75830   0.40338   0.69332 
C          C       0.59662   0.35492   0.69332 
C          C       0.64508   0.24170   0.69332 
C          C       0.24170   0.59662   0.69332 
C          C       0.40338   0.64508   0.69332 
C          C       0.35492   0.75830   0.69332 
C          C       0.79218   0.42125   0.68619 
C          C       0.57875   0.37093   0.68619 
C          C       0.62907   0.20782   0.68619 
C          C       0.20782   0.57875   0.68619 
C          C       0.42125   0.62907   0.68619 
C          C       0.37093   0.79218   0.68619 
C          C       0.81263   0.41056   0.74008 
C          C       0.58944   0.40207   0.74008 
C          C       0.59793   0.18737   0.74008 
C          C       0.18737   0.58944   0.74008 
C          C       0.41056   0.59793   0.74008 
C          C       0.40207   0.81263   0.74008 
C          C       0.79523   0.37948   0.80304 
C          C       0.62052   0.41575   0.80304 
C          C       0.58425   0.20477   0.80304 
C          C       0.20477   0.62052   0.80304 
C          C       0.37948   0.58425   0.80304 
C          C       0.41575   0.79523   0.80304 
C          C       0.76100   0.36142   0.81027 
C          C       0.63858   0.39958   0.81027 
C          C       0.60042   0.23900   0.81027 
C          C       0.23900   0.63858   0.81027 
C          C       0.36142   0.60042   0.81027 
C          C       0.39958   0.76100   0.81027 
N          N       0.84842   0.43201   0.74801 
N          N       0.56799   0.41641   0.74801 
N          N       0.58359   0.15158   0.74801 
N          N       0.15158   0.56799   0.74801 
N          N       0.43201   0.58359   0.74801 
N          N       0.41641   0.84842   0.74801 
C          C       0.87381   0.42824   0.74850 
C          C       0.57176   0.44557   0.74850 
C          C       0.55443   0.12619   0.74850 
C          C       0.12619   0.57176   0.74850 
C          C       0.42824   0.55443   0.74850 
C          C       0.44557   0.87381   0.74850 
C          C       0.91119   0.45365   0.74834 
C          C       0.54635   0.45754   0.74834 
C          C       0.54246   0.08881   0.74834 
C          C       0.08881   0.54635   0.74834 
C          C       0.45365   0.54246   0.74834 
C          C       0.45754   0.91119   0.74834 
S          S       0.93219   0.49697   0.74828 
S          S       0.50303   0.43522   0.74828 
S          S       0.56478   0.06781   0.74828 
S          S       0.06781   0.50303   0.74828 
S          S       0.49697   0.56478   0.74828 
S          S       0.43522   0.93219   0.74828 
C          C       0.97183   0.50124   0.74833 
C          C       0.49876   0.47059   0.74833 
C          C       0.52941   0.02817   0.74833 
C          C       0.02817   0.49876   0.74833 
C          C       0.50124   0.52941   0.74833 
C          C       0.47059   0.97183   0.74833 
C          C       0.96914   0.47245   0.74835 
C          C       0.52755   0.49669   0.74835 
C          C       0.50331   0.03086   0.74835 
C          C       0.03086   0.52755   0.74835 
C          C       0.47245   0.50331   0.74835 
C          C       0.49669   0.96914   0.74835 
C          C       0.93466   0.44621   0.74841 
C          C       0.55379   0.48845   0.74841 
C          C       0.51155   0.06534   0.74841 
C          C       0.06534   0.55379   0.74841 
C          C       0.44621   0.51155   0.74841 
C          C       0.48845   0.93466   0.74841 
C          C       0.00240   0.52908   0.74835 
C          C       0.47092   0.47332   0.74835 
C          C       0.52668   0.99760   0.74835 
C          C       0.99760   0.47092   0.74835 
C          C       0.52908   0.52668   0.74835 
C          C       0.47332   0.00240   0.74835 
H          H       0.69531   0.39573   0.74819 
H          H       0.60427   0.29958   0.74819 
H          H       0.70042   0.30469   0.74819 
H          H       0.30469   0.60427   0.74819 
H          H       0.39573   0.70042   0.74819 
H          H       0.29958   0.69531   0.74819 
H          H       0.74236   0.41497   0.64248 
H          H       0.58503   0.32739   0.64248 
H          H       0.67261   0.25764   0.64248 
H          H       0.25764   0.58503   0.64248 
H          H       0.41497   0.67261   0.64248 
H          H       0.32739   0.74236   0.64248 
H          H       0.80571   0.44839   0.62915 
H          H       0.55161   0.35732   0.62915 
H          H       0.64268   0.19429   0.62915 
H          H       0.19429   0.55161   0.62915 
H          H       0.44839   0.64268   0.62915 
H          H       0.35732   0.80571   0.62915 
H          H       0.80948   0.36627   0.85615 
H          H       0.63373   0.44321   0.85615 
H          H       0.55679   0.19052   0.85615 
H          H       0.19052   0.63373   0.85615 
H          H       0.36627   0.55679   0.85615 
H          H       0.44321   0.80948   0.85615 
H          H       0.74747   0.33428   0.86727 
H          H       0.66572   0.41319   0.86727 
H          H       0.58681   0.25253   0.86727 
H          H       0.25253   0.66572   0.86727 
H          H       0.33428   0.58681   0.86727 
H          H       0.41319   0.74747   0.86727 
H          H       0.87029   0.40110   0.74923 
H          H       0.59890   0.46919   0.74923 
H          H       0.53081   0.12971   0.74923 
H          H       0.12971   0.59890   0.74923 
H          H       0.40110   0.53081   0.74923 
H          H       0.46919   0.87029   0.74923 
H          H       0.92791   0.41795   0.74853 
H          H       0.58205   0.50996   0.74853 
H          H       0.49004   0.07209   0.74853 
H          H       0.07209   0.58205   0.74853 
H          H       0.41795   0.49004   0.74853 
H          H       0.50996   0.92791   0.74853 
O          O       0.44263   0.00260   0.74277 
O          O       0.99740   0.44003   0.74277 
O          O       0.55997   0.55737   0.74277 
O          O       0.55737   0.99740   0.74277 
O          O       0.00260   0.55997   0.74277 
O          O       0.44003   0.44263   0.74277 
C          C       0.44564   0.03340   0.68557 
C          C       0.96660   0.41224   0.68557 
C          C       0.58776   0.55436   0.68557 
C          C       0.55436   0.96660   0.68557 
C          C       0.03340   0.58776   0.68557 
C          C       0.41224   0.44564   0.68557 
C          C       0.41577   0.03512   0.67727 
C          C       0.96488   0.38065   0.67727 
C          C       0.61935   0.58423   0.67727 
C          C       0.58423   0.96488   0.67727 
C          C       0.03512   0.61935   0.67727 
C          C       0.38065   0.41577   0.67727 
H          H       0.45774   0.03894   0.55334 
H          H       0.96106   0.41880   0.55334 
H          H       0.58120   0.54226   0.55334 
H          H       0.54226   0.96106   0.55334 
H          H       0.03894   0.58120   0.55334 
H          H       0.41880   0.45774   0.55334 
H          H       0.46372   0.05541   0.77345 
H          H       0.94459   0.40831   0.77345 
H          H       0.59169   0.53628   0.77345 
H          H       0.53628   0.94459   0.77345 
H          H       0.05541   0.59169   0.77345 
H          H       0.40831   0.46372   0.77345 
H          H       0.41143   0.04076   0.54083 
H          H       0.95924   0.37067   0.54083 
H          H       0.62933   0.58857   0.54083 
H          H       0.58857   0.95924   0.54083 
H          H       0.04076   0.62933   0.54083 
H          H       0.37067   0.41143   0.54083 
H          H       0.41819   0.05668   0.76425 
H          H       0.94332   0.36151   0.76425 
H          H       0.63849   0.58181   0.76425 
H          H       0.58181   0.94332   0.76425 
H          H       0.05668   0.63849   0.76425 
H          H       0.36151   0.41819   0.76425 
C          C       0.62725   0.62201   0.68362 
C          C       0.37799   0.00524   0.68362 
C          C       0.99476   0.37275   0.68362 
C          C       0.37275   0.37799   0.68362 
C          C       0.62201   0.99476   0.68362 
C          C       0.00524   0.62725   0.68362 
H          H       0.63830   0.63504   0.55401 
H          H       0.36496   0.00326   0.55401 
H          H       0.99674   0.36170   0.55401 
H          H       0.36170   0.36496   0.55401 
H          H       0.63504   0.99674   0.55401 
H          H       0.00326   0.63830   0.55401 
H          H       0.64692   0.63650   0.79017 
H          H       0.36350   0.01042   0.79017 
H          H       0.98958   0.35308   0.79017 
H          H       0.35308   0.36350   0.79017 
H          H       0.63650   0.98958   0.79017 
H          H       0.01042   0.64692   0.79017 
H          H       0.60237   0.62247   0.71140 
H          H       0.37753   0.97990   0.71140 
H          H       0.02010   0.39763   0.71140 
H          H       0.39763   0.37753   0.71140 
H          H       0.62247   0.02010   0.71140 
H          H       0.97990   0.60237   0.71140 
