data_crystal

_cell_length_a    24.53000
_cell_length_b    17.88000
_cell_length_c    13.20000
_cell_angle_alpha 90.00000
_cell_angle_beta  90.00000
_cell_angle_gamma 111.91000

_space_group_name_Hall 'P 1'
_space_group_name_H-M_alt  'P 1'

loop_
_symmetry_equiv_pos_as_xyz
'x,y,z' 

loop_
_atom_site_label
_atom_site_type_symbol
_atom_site_fract_x
_atom_site_fract_y
_atom_site_fract_z
C          C       0.60639   0.81030   0.04763 
C          C       0.59983   0.72911   0.06054 
C          C       0.64868   0.71047   0.08694 
C          C       0.70411   0.77137   0.09947 
C          C       0.71068   0.85256   0.08655 
C          C       0.66183   0.87120   0.06015 
C          C       0.76708   0.91948   0.10498 
C          C       0.75491   0.74823   0.11911 
C          C       0.55560   0.83345   0.02798 
C          C       0.54342   0.66219   0.04211 
C          C       0.79038   0.93481   0.20317 
C          C       0.84034   0.00340   0.22278 
C          C       0.86802   0.05744   0.14420 
C          C       0.84546   0.03989   0.04517 
C          C       0.79509   0.97197   0.02602 
C          C       0.76348   0.72118   0.21527 
C          C       0.81130   0.69829   0.23297 
C          C       0.85048   0.70062   0.15412 
C          C       0.84110   0.72665   0.05748 
C          C       0.79387   0.75078   0.04033 
C          C       0.54703   0.86049   0.43183 
C          C       0.49920   0.88338   0.41413 
C          C       0.46002   0.88105   0.49298 
C          C       0.46940   0.85502   0.08962 
C          C       0.51663   0.83089   0.10677 
C          C       0.51541   0.60970   0.12107 
C          C       0.46504   0.54178   0.10193 
C          C       0.44248   0.52424   0.00289 
C          C       0.47017   0.57827   0.42432 
C          C       0.52013   0.64686   0.44392 
C          C       0.40731   0.90052   0.47344 
C          C       0.91958   0.13244   0.16507 
C          C       0.90320   0.68115   0.17366 
C          C       0.39092   0.44923   0.48203 
C          C       0.37100   0.86570   0.39056 
C          C       0.31714   0.87436   0.37923 
C          C       0.29841   0.91894   0.44972 
C          C       0.33705   0.95904   0.02831 
C          C       0.39054   0.94883   0.04097 
C          C       0.96211   0.13351   0.23708 
C          C       0.01211   0.20308   0.25202 
C          C       0.02114   0.27274   0.19444 
C          C       0.97736   0.27265   0.12556 
C          C       0.92715   0.20356   0.11147 
C          C       0.91996   0.63284   0.10612 
C          C       0.97345   0.62263   0.11879 
C          C       0.01209   0.66273   0.19738 
C          C       0.99336   0.70731   0.26787 
C          C       0.93950   0.71597   0.25653 
C          C       0.34839   0.44816   0.41002 
C          C       0.29839   0.37859   0.39508 
C          C       0.28936   0.30893   0.45265 
C          C       0.33315   0.30902   0.02153 
C          C       0.38335   0.37811   0.03563 
C          C       0.07969   0.34416   0.19939 
C          C       0.07564   0.66711   0.20314 
C          C       0.23082   0.23751   0.44771 
C          C       0.23486   0.91457   0.44396 
N          N       0.22598   0.99317   0.44569 
N          N       0.06930   0.42053   0.18102 
N          N       0.12506   0.33388   0.13008 
N          N       0.11510   0.73202   0.13637 
C          C       0.21332   0.02477   0.04252 
C          C       0.19489   0.09740   0.02282 
N          N       0.24120   0.16114   0.46608 
C          C       0.25272   0.12807   0.36916 
C          C       0.27163   0.05702   0.38808 
C          C       0.05778   0.45360   0.27793 
C          C       0.03887   0.52465   0.25902 
N          N       0.08453   0.58850   0.20141 
C          C       0.09719   0.55690   0.10458 
C          C       0.11561   0.48427   0.12428 
C          C       0.10167   0.29303   0.03299 
C          C       0.15173   0.29033   0.46567 
N          N       0.18545   0.24779   0.01702 
C          C       0.20884   0.28864   0.11410 
C          C       0.15877   0.29134   0.18143 
C          C       0.17837   0.76022   0.15878 
C          C       0.20872   0.84663   0.11970 
N          N       0.19540   0.84965   0.01073 
C          C       0.13213   0.82145   0.48832 
C          C       0.10178   0.73504   0.02739 
H          H       0.64384   0.64795   0.09502 
H          H       0.66667   0.93372   0.05208 
H          H       0.76867   0.89514   0.26513 
H          H       0.85613   0.01531   0.29992 
H          H       0.86652   0.07892   0.48238 
H          H       0.77749   0.96072   0.44985 
H          H       0.73348   0.71859   0.27661 
H          H       0.81764   0.67850   0.30807 
H          H       0.87116   0.73019   0.49591 
H          H       0.78754   0.77124   0.46557 
H          H       0.57702   0.86308   0.37049 
H          H       0.49287   0.90317   0.33903 
H          H       0.43935   0.85148   0.15119 
H          H       0.52297   0.81043   0.18152 
H          H       0.53301   0.62095   0.19724 
H          H       0.44399   0.50275   0.16472 
H          H       0.45438   0.56636   0.34717 
H          H       0.54183   0.68653   0.38196 
H          H       0.38277   0.82798   0.33753 
H          H       0.28887   0.84284   0.31747 
H          H       0.32458   0.99426   0.08353 
H          H       0.41820   0.97708   0.10496 
H          H       0.95786   0.07985   0.27957 
H          H       0.04460   0.20141   0.30624 
H          H       0.98282   0.32521   0.07982 
H          H       0.89453   0.20571   0.05751 
H          H       0.89230   0.60459   0.04213 
H          H       0.98593   0.58741   0.06357 
H          H       0.02164   0.73883   0.32963 
H          H       0.92773   0.75369   0.30957 
H          H       0.35264   0.50182   0.36753 
H          H       0.26591   0.38027   0.34086 
H          H       0.32769   0.25646   0.06728 
H          H       0.41597   0.37596   0.08958 
H          H       0.09579   0.34594   0.27883 
H          H       0.08973   0.68946   0.28124 
H          H       0.21472   0.23573   0.36826 
H          H       0.22078   0.89221   0.36585 
H          H       0.25205   0.04319   0.09357 
H          H       0.17566   0.97919   0.08099 
H          H       0.18790   0.12037   0.09784 
H          H       0.15266   0.07729   0.48028 
H          H       0.28869   0.17517   0.32730 
H          H       0.21276   0.10787   0.32033 
H          H       0.27886   0.03340   0.31333 
H          H       0.31394   0.07912   0.43022 
H          H       0.09774   0.47380   0.32677 
H          H       0.02181   0.40650   0.31980 
H          H       0.03164   0.54827   0.33376 
H          H       0.99656   0.50255   0.21688 
H          H       0.13484   0.60249   0.06610 
H          H       0.05846   0.53848   0.05353 
H          H       0.12261   0.46130   0.04926 
H          H       0.15785   0.50438   0.16682 
H          H       0.07786   0.32584   0.49193 
H          H       0.07091   0.22980   0.04563 
H          H       0.18064   0.35290   0.44518 
H          H       0.13140   0.25730   0.39591 
H          H       0.23960   0.35187   0.10146 
H          H       0.23264   0.25583   0.15516 
H          H       0.12987   0.22877   0.20192 
H          H       0.17910   0.32437   0.25119 
H          H       0.19842   0.72077   0.12218 
H          H       0.18602   0.75998   0.24180 
H          H       0.25613   0.86335   0.13342 
H          H       0.19338   0.88704   0.16513 
H          H       0.12449   0.82169   0.40530 
H          H       0.11208   0.86090   0.02492 
H          H       0.05437   0.71832   0.01368 
H          H       0.11712   0.69463   0.48197 
C          C       0.60639   0.81030   0.54763 
C          C       0.59983   0.72911   0.56054 
C          C       0.64868   0.71047   0.58694 
C          C       0.70411   0.77137   0.59948 
C          C       0.71068   0.85256   0.58655 
C          C       0.66183   0.87120   0.56015 
C          C       0.76708   0.91948   0.60498 
C          C       0.75491   0.74823   0.61911 
C          C       0.55560   0.83345   0.52798 
C          C       0.54342   0.66219   0.54211 
C          C       0.79038   0.93481   0.70317 
C          C       0.84034   0.00340   0.72278 
C          C       0.86802   0.05744   0.64420 
C          C       0.84546   0.03989   0.54517 
C          C       0.79509   0.97197   0.52602 
C          C       0.76348   0.72118   0.71527 
C          C       0.81130   0.69829   0.73297 
C          C       0.85048   0.70062   0.65412 
C          C       0.84110   0.72665   0.55748 
C          C       0.79387   0.75078   0.54033 
C          C       0.54703   0.86049   0.93183 
C          C       0.49920   0.88338   0.91413 
C          C       0.46002   0.88105   0.99298 
C          C       0.46940   0.85502   0.58962 
C          C       0.51663   0.83089   0.60678 
C          C       0.51541   0.60970   0.62107 
C          C       0.46504   0.54178   0.60193 
C          C       0.44248   0.52424   0.50289 
C          C       0.47017   0.57827   0.92432 
C          C       0.52013   0.64686   0.94392 
C          C       0.40731   0.90052   0.97344 
C          C       0.91958   0.13244   0.66507 
C          C       0.90320   0.68115   0.67366 
C          C       0.39092   0.44923   0.98203 
C          C       0.37100   0.86570   0.89056 
C          C       0.31714   0.87436   0.87923 
C          C       0.29841   0.91894   0.94972 
C          C       0.33705   0.95904   0.52831 
C          C       0.39054   0.94883   0.54097 
C          C       0.96211   0.13351   0.73708 
C          C       0.01211   0.20308   0.75202 
C          C       0.02114   0.27274   0.69444 
C          C       0.97736   0.27265   0.62556 
C          C       0.92715   0.20356   0.61147 
C          C       0.91996   0.63284   0.60613 
C          C       0.97345   0.62263   0.61879 
C          C       0.01209   0.66273   0.69737 
C          C       0.99336   0.70731   0.76787 
C          C       0.93950   0.71597   0.75653 
C          C       0.34839   0.44816   0.91002 
C          C       0.29839   0.37859   0.89508 
C          C       0.28936   0.30893   0.95265 
C          C       0.33315   0.30902   0.52153 
C          C       0.38335   0.37811   0.53563 
C          C       0.07969   0.34416   0.69939 
C          C       0.07564   0.66711   0.70314 
C          C       0.23082   0.23751   0.94771 
C          C       0.23486   0.91457   0.94396 
N          N       0.22598   0.99317   0.94569 
N          N       0.06930   0.42053   0.68102 
N          N       0.12506   0.33388   0.63008 
N          N       0.11510   0.73202   0.63637 
C          C       0.21332   0.02477   0.54252 
C          C       0.19489   0.09740   0.52282 
N          N       0.24120   0.16114   0.96607 
C          C       0.25272   0.12807   0.86916 
C          C       0.27163   0.05702   0.88808 
C          C       0.05778   0.45360   0.77793 
C          C       0.03887   0.52465   0.75902 
N          N       0.08453   0.58850   0.70141 
C          C       0.09719   0.55690   0.60458 
C          C       0.11561   0.48427   0.62428 
C          C       0.10167   0.29303   0.53299 
C          C       0.15173   0.29033   0.96567 
N          N       0.18545   0.24779   0.51702 
C          C       0.20884   0.28864   0.61410 
C          C       0.15877   0.29134   0.68142 
C          C       0.17837   0.76022   0.65878 
C          C       0.20872   0.84663   0.61970 
N          N       0.19540   0.84965   0.51072 
C          C       0.13213   0.82145   0.98832 
C          C       0.10178   0.73504   0.52739 
H          H       0.64384   0.64795   0.59502 
H          H       0.66667   0.93372   0.55208 
H          H       0.76867   0.89514   0.76513 
H          H       0.85613   0.01531   0.79993 
H          H       0.86652   0.07892   0.98238 
H          H       0.77749   0.96072   0.94985 
H          H       0.73348   0.71859   0.77661 
H          H       0.81764   0.67850   0.80807 
H          H       0.87116   0.73019   0.99591 
H          H       0.78754   0.77124   0.96557 
H          H       0.57702   0.86308   0.87049 
H          H       0.49287   0.90317   0.83903 
H          H       0.43935   0.85148   0.65119 
H          H       0.52297   0.81043   0.68153 
H          H       0.53301   0.62095   0.69724 
H          H       0.44399   0.50275   0.66472 
H          H       0.45438   0.56636   0.84717 
H          H       0.54183   0.68653   0.88196 
H          H       0.38277   0.82798   0.83752 
H          H       0.28887   0.84284   0.81747 
H          H       0.32458   0.99426   0.58353 
H          H       0.41820   0.97708   0.60496 
H          H       0.95786   0.07985   0.77957 
H          H       0.04460   0.20141   0.80624 
H          H       0.98282   0.32521   0.57982 
H          H       0.89453   0.20571   0.55751 
H          H       0.89230   0.60459   0.54213 
H          H       0.98593   0.58741   0.56357 
H          H       0.02164   0.73883   0.82963 
H          H       0.92773   0.75369   0.80957 
H          H       0.35264   0.50182   0.86753 
H          H       0.26591   0.38027   0.84086 
H          H       0.32769   0.25646   0.56728 
H          H       0.41597   0.37596   0.58958 
H          H       0.09579   0.34594   0.77883 
H          H       0.08973   0.68946   0.78124 
H          H       0.21472   0.23573   0.86826 
H          H       0.22078   0.89221   0.86585 
H          H       0.25205   0.04319   0.59357 
H          H       0.17566   0.97919   0.58099 
H          H       0.18790   0.12037   0.59784 
H          H       0.15266   0.07729   0.98028 
H          H       0.28869   0.17517   0.82730 
H          H       0.21276   0.10787   0.82033 
H          H       0.27886   0.03340   0.81333 
H          H       0.31394   0.07912   0.93022 
H          H       0.09774   0.47380   0.82677 
H          H       0.02181   0.40650   0.81980 
H          H       0.03164   0.54827   0.83376 
H          H       0.99656   0.50255   0.71688 
H          H       0.13484   0.60249   0.56610 
H          H       0.05846   0.53848   0.55353 
H          H       0.12261   0.46130   0.54926 
H          H       0.15785   0.50438   0.66682 
H          H       0.07786   0.32584   0.99193 
H          H       0.07091   0.22980   0.54563 
H          H       0.18064   0.35290   0.94518 
H          H       0.13140   0.25730   0.89591 
H          H       0.23960   0.35187   0.60146 
H          H       0.23264   0.25583   0.65516 
H          H       0.12987   0.22877   0.70192 
H          H       0.17910   0.32437   0.75119 
H          H       0.19842   0.72077   0.62218 
H          H       0.18602   0.75998   0.74180 
H          H       0.25613   0.86335   0.63342 
H          H       0.19338   0.88704   0.66513 
H          H       0.12449   0.82169   0.90530 
H          H       0.11208   0.86090   0.52492 
H          H       0.05437   0.71832   0.51368 
H          H       0.11712   0.69463   0.98197 
