data_crystal
 
_cell_length_a    33.08640
_cell_length_b    33.08640
_cell_length_c    8.69860
_cell_angle_alpha 90.00000
_cell_angle_beta  90.00000
_cell_angle_gamma 90.00000
 
_symmetry_space_group_name_Hall 'P 1'
_symmetry_space_group_name_H-M  'P 1'
 
loop_
_symmetry_equiv_pos_as_xyz
 'x,y,z' 
 
loop_
_atom_site_label
_atom_site_type_symbol
_atom_site_fract_x
_atom_site_fract_y
_atom_site_fract_z
N          N       0.93879   0.50277   0.21003 
N          N       0.06121   0.49723   0.21003 
N          N       0.49723   0.93879   0.21003 
N          N       0.50277   0.06121   0.21003 
N          N       0.00223   0.56282   0.22770 
N          N       0.99777   0.43718   0.22770 
N          N       0.43718   0.00223   0.22770 
N          N       0.56282   0.99777   0.22770 
C          C       0.87752   0.52561   0.11467 
C          C       0.12248   0.47439   0.11467 
C          C       0.47439   0.87752   0.11467 
C          C       0.52561   0.12248   0.11467 
C          C       0.87600   0.48442   0.11499 
C          C       0.12400   0.51558   0.11499 
C          C       0.51558   0.87600   0.11499 
C          C       0.48442   0.12400   0.11499 
C          C       0.91422   0.47042   0.18019 
C          C       0.08578   0.52958   0.18019 
C          C       0.52958   0.91422   0.18019 
C          C       0.47042   0.08578   0.18019 
C          C       0.91666   0.53682   0.17971 
C          C       0.08334   0.46318   0.17971 
C          C       0.46318   0.91666   0.17971 
C          C       0.53682   0.08334   0.17971 
C          C       0.02570   0.62102   0.32874 
C          C       0.97430   0.37898   0.32874 
C          C       0.37898   0.02570   0.32874 
C          C       0.62102   0.97430   0.32874 
C          C       0.98397   0.62291   0.32843 
C          C       0.01603   0.37709   0.32843 
C          C       0.37709   0.98397   0.32843 
C          C       0.62291   0.01603   0.32843 
C          C       0.96912   0.58640   0.25984 
C          C       0.03088   0.41360   0.25984 
C          C       0.41360   0.96912   0.25984 
C          C       0.58640   0.03088   0.25984 
C          C       0.03729   0.58331   0.26028 
C          C       0.96271   0.41669   0.26028 
C          C       0.41669   0.03729   0.26028 
C          C       0.58331   0.96271   0.26028 
C          C       0.92868   0.57656   0.21988 
C          C       0.07132   0.42344   0.21988 
C          C       0.42344   0.92868   0.21988 
C          C       0.57656   0.07132   0.21988 
C          C       0.07679   0.57010   0.22072 
C          C       0.92321   0.42990   0.22072 
C          C       0.42990   0.07679   0.22072 
C          C       0.57010   0.92321   0.22072 
C          C       0.89833   0.60904   0.22333 
C          C       0.10167   0.39096   0.22333 
C          C       0.39096   0.89833   0.22333 
C          C       0.60904   0.10167   0.22333 
C          C       0.89040   0.39989   0.22470 
C          C       0.10960   0.60011   0.22470 
C          C       0.60011   0.89040   0.22470 
C          C       0.39989   0.10960   0.22470 
C          C       0.14787   0.59002   0.28514 
C          C       0.85213   0.40998   0.28514 
C          C       0.40998   0.14787   0.28514 
C          C       0.59002   0.85213   0.28514 
C          C       0.17891   0.61829   0.28897 
C          C       0.82109   0.38171   0.28897 
C          C       0.38171   0.17891   0.28897 
C          C       0.61829   0.82109   0.28897 
C          C       0.17314   0.65785   0.23234 
C          C       0.82686   0.34215   0.23234 
C          C       0.34215   0.17314   0.23234 
C          C       0.65785   0.82686   0.23234 
C          C       0.13481   0.66792   0.17219 
C          C       0.86519   0.33208   0.17219 
C          C       0.33208   0.13481   0.17219 
C          C       0.66792   0.86519   0.17219 
C          C       0.10370   0.63969   0.16854 
C          C       0.89630   0.36031   0.16854 
C          C       0.36031   0.10370   0.16854 
C          C       0.63969   0.89630   0.16854 
C          C       0.09273   0.35190   0.16713 
C          C       0.90727   0.64810   0.16713 
C          C       0.64810   0.09273   0.16713 
C          C       0.35190   0.90727   0.16713 
C          C       0.12154   0.32137   0.17110 
C          C       0.87846   0.67863   0.17110 
C          C       0.67863   0.12154   0.17110 
C          C       0.32137   0.87846   0.17110 
C          C       0.16950   0.36781   0.28882 
C          C       0.83050   0.63219   0.28882 
C          C       0.63219   0.16950   0.28882 
C          C       0.36781   0.83050   0.28882 
C          C       0.14060   0.39821   0.28413 
C          C       0.85940   0.60179   0.28413 
C          C       0.60179   0.14060   0.28413 
C          C       0.39821   0.85940   0.28413 
C          C       0.83946   0.67115   0.23115 
C          C       0.16054   0.32885   0.23115 
C          C       0.32885   0.83946   0.23115 
C          C       0.67115   0.16054   0.23115 
C          C       0.20615   0.68763   0.23565 
C          C       0.79385   0.31237   0.23565 
C          C       0.31237   0.20615   0.23565 
C          C       0.68763   0.79385   0.23565 
C          C       0.75320   0.32498   0.24413 
C          C       0.24680   0.67502   0.24413 
C          C       0.67502   0.75320   0.24413 
C          C       0.32498   0.24680   0.24413 
C          C       0.72194   0.29695   0.24681 
C          C       0.27806   0.70305   0.24681 
C          C       0.70305   0.72194   0.24681 
C          C       0.29695   0.27806   0.24681 
C          C       0.73015   0.25521   0.24287 
C          C       0.26985   0.74479   0.24287 
C          C       0.74479   0.73015   0.24287 
C          C       0.25521   0.26985   0.24287 
C          C       0.77069   0.24241   0.23453 
C          C       0.22931   0.75759   0.23453 
C          C       0.75759   0.77069   0.23453 
C          C       0.24241   0.22931   0.23453 
C          C       0.80188   0.27051   0.23029 
C          C       0.19812   0.72949   0.23029 
C          C       0.72949   0.80188   0.23029 
C          C       0.27051   0.19812   0.23029 
N          N       0.81197   0.70335   0.23554 
N          N       0.18803   0.29665   0.23554 
N          N       0.29665   0.81197   0.23554 
N          N       0.70335   0.18803   0.23554 
C          C       0.77377   0.69693   0.25102 
C          C       0.22623   0.30307   0.25102 
C          C       0.30307   0.77377   0.25102 
C          C       0.69693   0.22623   0.25102 
H          H       0.00086   0.53429   0.17911 
H          H       0.99914   0.46571   0.17911 
H          H       0.46571   0.00086   0.17911 
H          H       0.53429   0.99914   0.17911 
H          H       0.85452   0.54623   0.06889 
H          H       0.14548   0.45377   0.06889 
H          H       0.45377   0.85452   0.06889 
H          H       0.54623   0.14548   0.06889 
H          H       0.85155   0.46550   0.06947 
H          H       0.14845   0.53450   0.06947 
H          H       0.53450   0.85155   0.06947 
H          H       0.46550   0.14845   0.06947 
H          H       0.04640   0.64354   0.37699 
H          H       0.95360   0.35646   0.37699 
H          H       0.35646   0.04640   0.37699 
H          H       0.64354   0.95360   0.37699 
H          H       0.96535   0.64719   0.37650 
H          H       0.03465   0.35281   0.37650 
H          H       0.35281   0.96535   0.37650 
H          H       0.64719   0.03465   0.37650 
H          H       0.15291   0.55971   0.33353 
H          H       0.84709   0.44029   0.33353 
H          H       0.44029   0.15291   0.33353 
H          H       0.55971   0.84709   0.33353 
H          H       0.20810   0.60959   0.33979 
H          H       0.79190   0.39041   0.33979 
H          H       0.39041   0.20810   0.33979 
H          H       0.60959   0.79190   0.33979 
H          H       0.12934   0.69825   0.12457 
H          H       0.87066   0.30175   0.12457 
H          H       0.30175   0.12934   0.12457 
H          H       0.69825   0.87066   0.12457 
H          H       0.07443   0.64810   0.11737 
H          H       0.92557   0.35190   0.11737 
H          H       0.35190   0.07443   0.11737 
H          H       0.64810   0.92557   0.11737 
H          H       0.06277   0.34582   0.11681 
H          H       0.93723   0.65418   0.11681 
H          H       0.65418   0.06277   0.11681 
H          H       0.34582   0.93723   0.11681 
H          H       0.11427   0.29128   0.12484 
H          H       0.88573   0.70872   0.12484 
H          H       0.70872   0.11427   0.12484 
H          H       0.29128   0.88573   0.12484 
H          H       0.19919   0.37422   0.34035 
H          H       0.80081   0.62578   0.34035 
H          H       0.62578   0.19919   0.34035 
H          H       0.37422   0.80081   0.34035 
H          H       0.14778   0.42808   0.33277 
H          H       0.85222   0.57192   0.33277 
H          H       0.57192   0.14778   0.33277 
H          H       0.42808   0.85222   0.33277 
H          H       0.74583   0.35734   0.24708 
H          H       0.25417   0.64266   0.24708 
H          H       0.64266   0.74583   0.24708 
H          H       0.35734   0.25417   0.24708 
H          H       0.69038   0.30729   0.25323 
H          H       0.30962   0.69271   0.25323 
H          H       0.69271   0.69038   0.25323 
H          H       0.30729   0.30962   0.25323 
H          H       0.77724   0.20986   0.23122 
H          H       0.22276   0.79014   0.23122 
H          H       0.79014   0.77724   0.23122 
H          H       0.20986   0.22276   0.23122 
H          H       0.83326   0.25974   0.22452 
H          H       0.16674   0.74026   0.22452 
H          H       0.74026   0.83326   0.22452 
H          H       0.25974   0.16674   0.22452 
H          H       0.76043   0.66574   0.25829 
H          H       0.23957   0.33426   0.25829 
H          H       0.33426   0.76043   0.25829 
H          H       0.66574   0.23957   0.25829 
N          N       0.93879   0.50277   0.71003 
N          N       0.06121   0.49723   0.71003 
N          N       0.49723   0.93879   0.71003 
N          N       0.50277   0.06121   0.71003 
N          N       0.00223   0.56282   0.72770 
N          N       0.99777   0.43718   0.72770 
N          N       0.43718   0.00223   0.72770 
N          N       0.56282   0.99777   0.72770 
C          C       0.87752   0.52561   0.61467 
C          C       0.12248   0.47439   0.61467 
C          C       0.47439   0.87752   0.61467 
C          C       0.52561   0.12248   0.61467 
C          C       0.87600   0.48442   0.61499 
C          C       0.12400   0.51558   0.61499 
C          C       0.51558   0.87600   0.61499 
C          C       0.48442   0.12400   0.61499 
C          C       0.91422   0.47042   0.68019 
C          C       0.08578   0.52958   0.68019 
C          C       0.52958   0.91422   0.68019 
C          C       0.47042   0.08578   0.68019 
C          C       0.91666   0.53682   0.67971 
C          C       0.08334   0.46318   0.67971 
C          C       0.46318   0.91666   0.67971 
C          C       0.53682   0.08334   0.67971 
C          C       0.02570   0.62102   0.82874 
C          C       0.97430   0.37898   0.82874 
C          C       0.37898   0.02570   0.82874 
C          C       0.62102   0.97430   0.82874 
C          C       0.98397   0.62291   0.82843 
C          C       0.01603   0.37709   0.82843 
C          C       0.37709   0.98397   0.82843 
C          C       0.62291   0.01603   0.82843 
C          C       0.96912   0.58640   0.75984 
C          C       0.03088   0.41360   0.75984 
C          C       0.41360   0.96912   0.75984 
C          C       0.58640   0.03088   0.75984 
C          C       0.03729   0.58331   0.76028 
C          C       0.96271   0.41669   0.76028 
C          C       0.41669   0.03729   0.76028 
C          C       0.58331   0.96271   0.76028 
C          C       0.92868   0.57656   0.71988 
C          C       0.07132   0.42344   0.71988 
C          C       0.42344   0.92868   0.71988 
C          C       0.57656   0.07132   0.71988 
C          C       0.07679   0.57010   0.72072 
C          C       0.92321   0.42990   0.72072 
C          C       0.42990   0.07679   0.72072 
C          C       0.57010   0.92321   0.72072 
C          C       0.89833   0.60904   0.72333 
C          C       0.10167   0.39096   0.72333 
C          C       0.39096   0.89833   0.72333 
C          C       0.60904   0.10167   0.72333 
C          C       0.89040   0.39989   0.72471 
C          C       0.10960   0.60011   0.72471 
C          C       0.60011   0.89040   0.72471 
C          C       0.39989   0.10960   0.72471 
C          C       0.14787   0.59002   0.78514 
C          C       0.85213   0.40998   0.78514 
C          C       0.40998   0.14787   0.78514 
C          C       0.59002   0.85213   0.78514 
C          C       0.17891   0.61829   0.78898 
C          C       0.82109   0.38171   0.78898 
C          C       0.38171   0.17891   0.78898 
C          C       0.61829   0.82109   0.78898 
C          C       0.17314   0.65785   0.73234 
C          C       0.82686   0.34215   0.73234 
C          C       0.34215   0.17314   0.73234 
C          C       0.65785   0.82686   0.73234 
C          C       0.13481   0.66792   0.67220 
C          C       0.86519   0.33208   0.67220 
C          C       0.33208   0.13481   0.67220 
C          C       0.66792   0.86519   0.67220 
C          C       0.10370   0.63969   0.66854 
C          C       0.89630   0.36031   0.66854 
C          C       0.36031   0.10370   0.66854 
C          C       0.63969   0.89630   0.66854 
C          C       0.09273   0.35190   0.66713 
C          C       0.90727   0.64810   0.66713 
C          C       0.64810   0.09273   0.66713 
C          C       0.35190   0.90727   0.66713 
C          C       0.12154   0.32137   0.67110 
C          C       0.87846   0.67863   0.67110 
C          C       0.67863   0.12154   0.67110 
C          C       0.32137   0.87846   0.67110 
C          C       0.16950   0.36781   0.78882 
C          C       0.83050   0.63219   0.78882 
C          C       0.63219   0.16950   0.78882 
C          C       0.36781   0.83050   0.78882 
C          C       0.14060   0.39821   0.78413 
C          C       0.85940   0.60179   0.78413 
C          C       0.60179   0.14060   0.78413 
C          C       0.39821   0.85940   0.78413 
C          C       0.83946   0.67115   0.73115 
C          C       0.16054   0.32885   0.73115 
C          C       0.32885   0.83946   0.73115 
C          C       0.67115   0.16054   0.73115 
C          C       0.20615   0.68763   0.73565 
C          C       0.79385   0.31237   0.73565 
C          C       0.31237   0.20615   0.73565 
C          C       0.68763   0.79385   0.73565 
C          C       0.75320   0.32498   0.74413 
C          C       0.24680   0.67502   0.74413 
C          C       0.67502   0.75320   0.74413 
C          C       0.32498   0.24680   0.74413 
C          C       0.72194   0.29695   0.74681 
C          C       0.27806   0.70305   0.74681 
C          C       0.70305   0.72194   0.74681 
C          C       0.29695   0.27806   0.74681 
C          C       0.73015   0.25521   0.74287 
C          C       0.26985   0.74479   0.74287 
C          C       0.74479   0.73015   0.74287 
C          C       0.25521   0.26985   0.74287 
C          C       0.77069   0.24241   0.73453 
C          C       0.22931   0.75759   0.73453 
C          C       0.75759   0.77069   0.73453 
C          C       0.24241   0.22931   0.73453 
C          C       0.80188   0.27051   0.73029 
C          C       0.19812   0.72949   0.73029 
C          C       0.72949   0.80188   0.73029 
C          C       0.27051   0.19812   0.73029 
N          N       0.81197   0.70335   0.73554 
N          N       0.18803   0.29665   0.73554 
N          N       0.29665   0.81197   0.73554 
N          N       0.70335   0.18803   0.73554 
C          C       0.77377   0.69693   0.75102 
C          C       0.22623   0.30307   0.75102 
C          C       0.30307   0.77377   0.75102 
C          C       0.69693   0.22623   0.75102 
H          H       0.00086   0.53429   0.67911 
H          H       0.99914   0.46571   0.67911 
H          H       0.46571   0.00086   0.67911 
H          H       0.53429   0.99914   0.67911 
H          H       0.85452   0.54623   0.56890 
H          H       0.14548   0.45377   0.56890 
H          H       0.45377   0.85452   0.56890 
H          H       0.54623   0.14548   0.56890 
H          H       0.85155   0.46550   0.56947 
H          H       0.14845   0.53450   0.56947 
H          H       0.53450   0.85155   0.56947 
H          H       0.46550   0.14845   0.56947 
H          H       0.04640   0.64354   0.87699 
H          H       0.95360   0.35646   0.87699 
H          H       0.35646   0.04640   0.87699 
H          H       0.64354   0.95360   0.87699 
H          H       0.96535   0.64719   0.87650 
H          H       0.03465   0.35281   0.87650 
H          H       0.35281   0.96535   0.87650 
H          H       0.64719   0.03465   0.87650 
H          H       0.15291   0.55971   0.83353 
H          H       0.84709   0.44029   0.83353 
H          H       0.44029   0.15291   0.83353 
H          H       0.55971   0.84709   0.83353 
H          H       0.20810   0.60959   0.83979 
H          H       0.79190   0.39041   0.83979 
H          H       0.39041   0.20810   0.83979 
H          H       0.60959   0.79190   0.83979 
H          H       0.12934   0.69825   0.62457 
H          H       0.87066   0.30175   0.62457 
H          H       0.30175   0.12934   0.62457 
H          H       0.69825   0.87066   0.62457 
H          H       0.07443   0.64810   0.61737 
H          H       0.92557   0.35190   0.61737 
H          H       0.35190   0.07443   0.61737 
H          H       0.64810   0.92557   0.61737 
H          H       0.06277   0.34582   0.61681 
H          H       0.93723   0.65418   0.61681 
H          H       0.65418   0.06277   0.61681 
H          H       0.34582   0.93723   0.61681 
H          H       0.11427   0.29128   0.62484 
H          H       0.88573   0.70872   0.62484 
H          H       0.70872   0.11427   0.62484 
H          H       0.29128   0.88573   0.62484 
H          H       0.19919   0.37422   0.84035 
H          H       0.80081   0.62578   0.84035 
H          H       0.62578   0.19919   0.84035 
H          H       0.37422   0.80081   0.84035 
H          H       0.14778   0.42808   0.83277 
H          H       0.85222   0.57192   0.83277 
H          H       0.57192   0.14778   0.83277 
H          H       0.42808   0.85222   0.83277 
H          H       0.74583   0.35734   0.74708 
H          H       0.25417   0.64266   0.74708 
H          H       0.64266   0.74583   0.74708 
H          H       0.35734   0.25417   0.74708 
H          H       0.69038   0.30729   0.75324 
H          H       0.30962   0.69271   0.75324 
H          H       0.69271   0.69038   0.75324 
H          H       0.30729   0.30962   0.75324 
H          H       0.77724   0.20986   0.73122 
H          H       0.22276   0.79014   0.73122 
H          H       0.79014   0.77724   0.73122 
H          H       0.20986   0.22276   0.73122 
H          H       0.83326   0.25974   0.72452 
H          H       0.16674   0.74026   0.72452 
H          H       0.74026   0.83326   0.72452 
H          H       0.25974   0.16674   0.72452 
H          H       0.76043   0.66574   0.75829 
H          H       0.23957   0.33426   0.75829 
H          H       0.33426   0.76043   0.75829 
H          H       0.66574   0.23957   0.75829 
