data_crystal

_cell_length_a    22.12320
_cell_length_b    22.12320
_cell_length_c    7.03320
_cell_angle_alpha 90.00000
_cell_angle_beta  90.00000
_cell_angle_gamma 120.00000

_space_group_name_Hall 'P 1'
_space_group_name_H-M_alt  'P 1'

loop_
_symmetry_equiv_pos_as_xyz
'x,y,z' 

loop_
_atom_site_label
_atom_site_type_symbol
_atom_site_fract_x
_atom_site_fract_y
_atom_site_fract_z
C          C       0.52308   0.57097   0.25023 
C          C       0.47692   0.42903   0.24977 
C          C       0.56885   0.54575   0.25002 
C          C       0.43115   0.45425   0.24998 
C          C       0.54617   0.47478   0.24979 
C          C       0.45383   0.52522   0.25021 
N          N       0.40567   0.54940   0.25015 
N          N       0.59433   0.45060   0.24985 
C          C       0.42222   0.61420   0.24994 
C          C       0.57778   0.38580   0.25006 
C          C       0.37218   0.63841   0.24985 
C          C       0.62782   0.36159   0.25015 
C          C       0.30234   0.59384   0.24999 
C          C       0.69766   0.40616   0.25001 
C          C       0.43023   0.95917   0.25011 
C          C       0.56977   0.04083   0.24989 
C          C       0.45912   0.03107   0.24991 
C          C       0.54088   0.96893   0.25009 
C          C       0.52879   0.07226   0.24985 
C          C       0.47121   0.92774   0.25015 
N          N       0.44344   0.85439   0.24998 
N          N       0.55656   0.14561   0.25002 
C          C       0.37950   0.81238   0.25006 
C          C       0.62050   0.18762   0.24994 
C          C       0.35281   0.73728   0.24985 
C          C       0.64719   0.26272   0.25015 
C          C       0.39646   0.70944   0.24972 
C          C       0.60354   0.29056   0.25028 
C          C       0.04452   0.47322   0.24997 
C          C       0.95548   0.52678   0.25003 
C          C       0.97555   0.42882   0.25014 
C          C       0.02445   0.57118   0.24986 
C          C       0.93059   0.45510   0.25006 
C          C       0.06941   0.54490   0.24994 
N          N       0.13984   0.59196   0.24995 
N          N       0.86016   0.40804   0.25005 
C          C       0.18499   0.57215   0.24990 
C          C       0.81501   0.42785   0.25010 
C          C       0.25766   0.62105   0.24997 
C          C       0.74234   0.37895   0.25003 
C          C       0.28332   0.69327   0.24999 
C          C       0.71668   0.30673   0.25001 
O          O       0.27739   0.52378   0.24991 
O          O       0.72261   0.47622   0.25009 
O          O       0.24098   0.72119   0.25007 
O          O       0.75902   0.27881   0.24993 
H          H       0.81008   0.30430   0.24993 
H          H       0.71010   0.51169   0.25009 
H          H       0.82501   0.47635   0.25010 
H          H       0.93027   0.55409   0.25003 
H          H       0.93775   0.38151   0.25014 
H          H       0.62014   0.07651   0.24989 
H          H       0.44178   0.06789   0.24991 
H          H       0.65539   0.17255   0.24994 
H          H       0.54941   0.25466   0.24972 
H          H       0.52657   0.35110   0.25006 
H          H       0.61857   0.58531   0.25002 
H          H       0.52007   0.62215   0.25023 
H          H       0.37795   0.42612   0.24998 
H          H       0.45778   0.38209   0.24977 
H          H       0.46552   0.66278   0.24994 
H          H       0.44760   0.74236   0.24972 
H          H       0.14773   0.52506   0.24990 
H          H       0.22638   0.49017   0.24991 
H          H       0.23216   0.76088   0.25007 
H          H       0.05201   0.61913   0.24986 
H          H       0.07308   0.46026   0.24997 
H          H       0.34184   0.83504   0.25006 
H          H       0.38079   0.94198   0.25011 
H          H       0.56372   0.95091   0.25009 
C          C       0.52308   0.57097   0.75023 
C          C       0.47692   0.42903   0.74977 
C          C       0.56885   0.54575   0.75002 
C          C       0.43115   0.45425   0.74998 
C          C       0.54617   0.47478   0.74979 
C          C       0.45383   0.52522   0.75021 
N          N       0.40567   0.54940   0.75015 
N          N       0.59433   0.45060   0.74985 
C          C       0.42222   0.61420   0.74994 
C          C       0.57778   0.38580   0.75006 
C          C       0.37218   0.63841   0.74985 
C          C       0.62782   0.36159   0.75015 
C          C       0.30234   0.59384   0.74999 
C          C       0.69766   0.40616   0.75001 
C          C       0.43023   0.95917   0.75011 
C          C       0.56977   0.04083   0.74989 
C          C       0.45912   0.03107   0.74991 
C          C       0.54088   0.96893   0.75009 
C          C       0.52879   0.07226   0.74985 
C          C       0.47121   0.92774   0.75015 
N          N       0.44344   0.85439   0.74998 
N          N       0.55656   0.14561   0.75002 
C          C       0.37950   0.81238   0.75006 
C          C       0.62050   0.18762   0.74994 
C          C       0.35281   0.73728   0.74985 
C          C       0.64719   0.26272   0.75015 
C          C       0.39646   0.70944   0.74972 
C          C       0.60354   0.29056   0.75028 
C          C       0.04452   0.47322   0.74997 
C          C       0.95548   0.52678   0.75003 
C          C       0.97555   0.42882   0.75014 
C          C       0.02445   0.57118   0.74986 
C          C       0.93059   0.45510   0.75006 
C          C       0.06941   0.54490   0.74994 
N          N       0.13984   0.59196   0.74995 
N          N       0.86016   0.40804   0.75005 
C          C       0.18499   0.57215   0.74990 
C          C       0.81501   0.42785   0.75010 
C          C       0.25766   0.62105   0.74997 
C          C       0.74234   0.37895   0.75003 
C          C       0.28332   0.69327   0.74999 
C          C       0.71668   0.30673   0.75001 
O          O       0.27739   0.52378   0.74991 
O          O       0.72261   0.47622   0.75009 
O          O       0.24098   0.72119   0.75007 
O          O       0.75902   0.27881   0.74993 
H          H       0.81008   0.30430   0.74993 
H          H       0.71010   0.51169   0.75009 
H          H       0.82501   0.47635   0.75010 
H          H       0.93027   0.55409   0.75003 
H          H       0.93775   0.38151   0.75014 
H          H       0.62014   0.07651   0.74989 
H          H       0.44178   0.06789   0.74991 
H          H       0.65539   0.17255   0.74994 
H          H       0.54941   0.25466   0.74972 
H          H       0.52657   0.35110   0.75006 
H          H       0.61857   0.58531   0.75002 
H          H       0.52007   0.62215   0.75023 
H          H       0.37795   0.42612   0.74998 
H          H       0.45778   0.38209   0.74977 
H          H       0.46552   0.66278   0.74994 
H          H       0.44760   0.74236   0.74972 
H          H       0.14773   0.52506   0.74990 
H          H       0.22638   0.49017   0.74991 
H          H       0.23216   0.76088   0.75007 
H          H       0.05201   0.61913   0.74986 
H          H       0.07308   0.46026   0.74997 
H          H       0.34184   0.83504   0.75006 
H          H       0.38079   0.94198   0.75011 
H          H       0.56372   0.95091   0.75009 
