data_crystal
 
_cell_length_a    48.87150
_cell_length_b    56.54200
_cell_length_c    3.91550
_cell_angle_alpha 90.16510
_cell_angle_beta  89.94330
_cell_angle_gamma 89.92030
 
_symmetry_space_group_name_Hall 'P 1'
_symmetry_space_group_name_H-M  'P 1'
 
loop_
_symmetry_equiv_pos_as_xyz
 'x,y,z' 
 
loop_
_atom_site_label
_atom_site_type_symbol
_atom_site_fract_x
_atom_site_fract_y
_atom_site_fract_z
_atom_site_charge
C          C       0.27916   0.27202   0.05669   0.0000000000
C          C       0.23537   0.29264  -0.01521   0.0000000000
C          C       0.19116   0.27226   0.10382   0.0000000000
C          C       0.17451   0.29299   0.12501   0.0000000000
C          C       0.14842   0.29410  -0.03400   0.0000000000
C          C       0.13185   0.31444  -0.01177   0.0000000000
C          C       0.14102   0.33478   0.16201   0.0000000000
C          C       0.16679   0.33389   0.32420   0.0000000000
C          C       0.18277   0.31325   0.31116   0.0000000000
H          H       0.22611   0.30840  -0.06371   0.0000000000
H          H       0.14118   0.28007  -0.17241   0.0000000000
H          H       0.11312   0.31440  -0.12862   0.0000000000
H          H       0.17417   0.34806   0.45692   0.0000000000
H          H       0.20072   0.31328   0.44239   0.0000000000
C          C       0.77978   0.77156  -0.05067   0.0000000000
C          C       0.73583   0.79225   0.00753   0.0000000000
C          C       0.69185   0.77172  -0.11865   0.0000000000
C          C       0.67504   0.79235  -0.13549   0.0000000000
C          C       0.68293   0.81288  -0.31674   0.0000000000
C          C       0.66679   0.83348  -0.31769   0.0000000000
C          C       0.64129   0.83399  -0.14770   0.0000000000
C          C       0.63237   0.81331   0.01781   0.0000000000
C          C       0.64907   0.79304   0.02777   0.0000000000
H          H       0.72647   0.80805   0.05177   0.0000000000
H          H       0.70073   0.81315  -0.45204   0.0000000000
H          H       0.67383   0.84792  -0.44650   0.0000000000
H          H       0.61378   0.81297   0.13843   0.0000000000
H          H       0.64203   0.77876   0.16148   0.0000000000
C          C       0.89129   0.60581  -0.25217   0.0000000000
C          C       0.88472   0.58255  -0.35821   0.0000000000
C          C       0.90370   0.56398  -0.32654   0.0000000000
C          C       0.92985   0.56830  -0.18812   0.0000000000
C          C       0.93685   0.59146  -0.08565   0.0000000000
C          C       0.91774   0.60998  -0.11736   0.0000000000
C          C       0.94723   0.55102  -0.15165   0.0000000000
C          C       0.96295   0.53504  -0.11296   0.0000000000
C          C       0.98021   0.51780  -0.06377   0.0000000000
C          C       0.00570   0.52350   0.08483   0.0000000000
C          C       0.02562   0.50606   0.15038   0.0000000000
H          H       0.86588   0.57879  -0.45860   0.0000000000
H          H       0.89806   0.54737  -0.40449   0.0000000000
H          H       0.95576   0.59509   0.01449   0.0000000000
H          H       0.92341   0.62653  -0.03922   0.0000000000
H          H       0.98991   0.45929  -0.14861   0.0000000000
C          C       0.87152   0.62385  -0.28179   0.0000000000
N          N       0.87563   0.64601  -0.16047   0.0000000000
H          H       0.64676   0.88026  -0.33979   0.0000000000
C          C       0.60844   0.89335  -0.18462   0.0000000000
C          C       0.61443   0.91695  -0.27807   0.0000000000
C          C       0.59499   0.93507  -0.23568   0.0000000000
C          C       0.56898   0.92996  -0.09861   0.0000000000
C          C       0.56270   0.90654  -0.00370   0.0000000000
C          C       0.58225   0.88846  -0.04653   0.0000000000
C          C       0.55104   0.94681  -0.06258   0.0000000000
C          C       0.53478   0.96251  -0.03519   0.0000000000
C          C       0.51755   0.98004  -0.01351   0.0000000000
C          C       0.49080   0.97765   0.12325   0.0000000000
C          C       0.47366   0.99771   0.13445   0.0000000000
H          H       0.63312   0.92123  -0.37844   0.0000000000
H          H       0.60009   0.95194  -0.30659   0.0000000000
H          H       0.54396   0.90238   0.09705   0.0000000000
H          H       0.57707   0.87166   0.02505   0.0000000000
H          H       0.54565   0.00417  -0.23412   0.0000000000
C          C       0.62852   0.87570  -0.23012   0.0000000000
N          N       0.62458   0.85311  -0.12919   0.0000000000
H          H       0.85327   0.61985  -0.39514   0.0000000000
C          C       0.27928   0.22850   0.06001   0.0000000000
C          C       0.23561   0.20774  -0.01359   0.0000000000
C          C       0.19127   0.22815   0.10255   0.0000000000
C          C       0.17467   0.20742   0.11856   0.0000000000
C          C       0.14879   0.20649  -0.04601   0.0000000000
C          C       0.13231   0.18612  -0.03463   0.0000000000
C          C       0.14140   0.16555   0.13299   0.0000000000
C          C       0.16684   0.16627   0.30315   0.0000000000
C          C       0.18271   0.18699   0.30170   0.0000000000
H          H       0.22644   0.19196  -0.06355   0.0000000000
H          H       0.14166   0.22066  -0.18152   0.0000000000
H          H       0.11376   0.18629  -0.15569   0.0000000000
H          H       0.17403   0.15192   0.43294   0.0000000000
H          H       0.20041   0.18688   0.43877   0.0000000000
C          C       0.77989   0.72803  -0.05044   0.0000000000
C          C       0.73607   0.70733   0.01271   0.0000000000
C          C       0.69198   0.72765  -0.11475   0.0000000000
C          C       0.67530   0.70696  -0.12845   0.0000000000
C          C       0.68330   0.68631  -0.30824   0.0000000000
C          C       0.66723   0.66571  -0.30849   0.0000000000
C          C       0.64176   0.66527  -0.13802   0.0000000000
C          C       0.63278   0.68602   0.02746   0.0000000000
C          C       0.64936   0.70634   0.03541   0.0000000000
H          H       0.72680   0.69157   0.06023   0.0000000000
H          H       0.70111   0.68597  -0.44324   0.0000000000
H          H       0.67431   0.65122  -0.43723   0.0000000000
H          H       0.61422   0.68640   0.14898   0.0000000000
H          H       0.64225   0.72072   0.16759   0.0000000000
C          C       0.89103   0.89389  -0.17784   0.0000000000
C          C       0.88488   0.91749  -0.27006   0.0000000000
C          C       0.90424   0.93565  -0.22838   0.0000000000
C          C       0.93033   0.93056  -0.09370   0.0000000000
C          C       0.93677   0.90713  -0.00022   0.0000000000
C          C       0.91731   0.88903  -0.04219   0.0000000000
C          C       0.94827   0.94739  -0.05865   0.0000000000
C          C       0.96465   0.96296  -0.03208   0.0000000000
C          C       0.98213   0.98028  -0.01157   0.0000000000
C          C       0.00889   0.97755   0.12317   0.0000000000
C          C       0.02635   0.99736   0.13222   0.0000000000
H          H       0.86613   0.92174  -0.36890   0.0000000000
H          H       0.89902   0.95253  -0.29815   0.0000000000
H          H       0.95556   0.90298   0.09870   0.0000000000
H          H       0.92262   0.87223   0.02806   0.0000000000
H          H       0.95433   0.00478  -0.23024   0.0000000000
C          C       0.87108   0.87617  -0.22160   0.0000000000
N          N       0.87513   0.85365  -0.11687   0.0000000000
H          H       0.64722   0.61896  -0.33411   0.0000000000
H          H       0.85286   0.88060  -0.33267   0.0000000000
C          C       0.60892   0.60598  -0.17866   0.0000000000
C          C       0.61484   0.58236  -0.27387   0.0000000000
C          C       0.59534   0.56433  -0.23286   0.0000000000
C          C       0.56934   0.56958  -0.09540   0.0000000000
C          C       0.56313   0.59304   0.00104   0.0000000000
C          C       0.58274   0.61101  -0.04033   0.0000000000
C          C       0.55132   0.55284  -0.06016   0.0000000000
C          C       0.53496   0.53727  -0.03315   0.0000000000
C          C       0.51764   0.51986  -0.01222   0.0000000000
C          C       0.49093   0.52239   0.12565   0.0000000000
C          C       0.47370   0.50244   0.13555   0.0000000000
H          H       0.63352   0.57798  -0.37455   0.0000000000
H          H       0.60038   0.54743  -0.30505   0.0000000000
H          H       0.54439   0.59730   0.10180   0.0000000000
H          H       0.57761   0.62783   0.03250   0.0000000000
H          H       0.54558   0.49557  -0.23605   0.0000000000
C          C       0.62902   0.62356  -0.22300   0.0000000000
N          N       0.62511   0.64617  -0.11975   0.0000000000
C          C       0.17804   0.25020   0.14704   0.0000000000
C          C       0.26440   0.25024   0.05885   0.0000000000
H          H       0.15775   0.25020   0.21383   0.0000000000
C          C       0.32116   0.25036   0.16551   0.0000000000
C          C       0.23497   0.25022   0.05476   0.0000000000
H          H       0.34134   0.25043   0.23707   0.0000000000
O          O       0.04900   0.51471   0.29559   0.0000000000
C          C       0.07401   0.50359   0.39580   0.0000000000
H          H       0.08725   0.51688   0.51087   0.0000000000
H          H       0.07011   0.48987   0.58391   0.0000000000
H          H       0.08446   0.49599   0.17560   0.0000000000
O          O       0.47926   0.54248   0.25578   0.0000000000
C          C       0.48886   0.56627   0.28413   0.0000000000
H          H       0.47302   0.57685   0.40772   0.0000000000
H          H       0.50736   0.56709   0.43847   0.0000000000
H          H       0.49286   0.57369   0.03295   0.0000000000
O          O       0.47902   0.95763   0.25129   0.0000000000
C          C       0.48854   0.93380   0.27878   0.0000000000
H          H       0.47266   0.92331   0.40154   0.0000000000
H          H       0.49257   0.92632   0.02736   0.0000000000
H          H       0.50701   0.93293   0.43356   0.0000000000
O          O       0.02039   0.95739   0.25140   0.0000000000
C          C       0.01046   0.93373   0.28270   0.0000000000
H          H       0.02621   0.92308   0.40551   0.0000000000
H          H       0.99204   0.93324   0.43914   0.0000000000
H          H       0.00621   0.92615   0.03265   0.0000000000
C          C       0.72084   0.72798  -0.05669   0.0000000000
C          C       0.76463   0.70736   0.01521   0.0000000000
C          C       0.80884   0.72774  -0.10382   0.0000000000
C          C       0.82549   0.70701  -0.12501   0.0000000000
C          C       0.85158   0.70590   0.03400   0.0000000000
C          C       0.86815   0.68556   0.01177   0.0000000000
C          C       0.85898   0.66522  -0.16201   0.0000000000
C          C       0.83321   0.66611  -0.32420   0.0000000000
C          C       0.81723   0.68675  -0.31116   0.0000000000
H          H       0.77389   0.69160   0.06371   0.0000000000
H          H       0.85882   0.71993   0.17241   0.0000000000
H          H       0.88688   0.68560   0.12862   0.0000000000
H          H       0.82583   0.65194  -0.45692   0.0000000000
H          H       0.79928   0.68672  -0.44239   0.0000000000
C          C       0.22022   0.22844   0.05067   0.0000000000
C          C       0.26417   0.20775  -0.00753   0.0000000000
C          C       0.30815   0.22828   0.11865   0.0000000000
C          C       0.32496   0.20765   0.13549   0.0000000000
C          C       0.31707   0.18712   0.31674   0.0000000000
C          C       0.33322   0.16652   0.31769   0.0000000000
C          C       0.35871   0.16601   0.14770   0.0000000000
C          C       0.36763   0.18669  -0.01781   0.0000000000
C          C       0.35093   0.20696  -0.02777   0.0000000000
H          H       0.27353   0.19195  -0.05177   0.0000000000
H          H       0.29927   0.18685   0.45204   0.0000000000
H          H       0.32617   0.15208   0.44650   0.0000000000
H          H       0.38622   0.18703  -0.13843   0.0000000000
H          H       0.35797   0.22124  -0.16148   0.0000000000
C          C       0.10871   0.39419   0.25217   0.0000000000
C          C       0.11528   0.41745   0.35821   0.0000000000
C          C       0.09631   0.43602   0.32654   0.0000000000
C          C       0.07015   0.43170   0.18812   0.0000000000
C          C       0.06315   0.40854   0.08565   0.0000000000
C          C       0.08226   0.39002   0.11736   0.0000000000
C          C       0.05277   0.44898   0.15165   0.0000000000
C          C       0.03705   0.46496   0.11296   0.0000000000
C          C       0.01979   0.48220   0.06377   0.0000000000
C          C       0.99430   0.47650  -0.08483   0.0000000000
C          C       0.97438   0.49394  -0.15038   0.0000000000
H          H       0.13412   0.42121   0.45860   0.0000000000
H          H       0.10194   0.45263   0.40449   0.0000000000
H          H       0.04424   0.40491  -0.01449   0.0000000000
H          H       0.07659   0.37347   0.03922   0.0000000000
H          H       0.01009   0.54071   0.14861   0.0000000000
C          C       0.12848   0.37615   0.28179   0.0000000000
N          N       0.12437   0.35399   0.16047   0.0000000000
H          H       0.35324   0.11974   0.33979   0.0000000000
C          C       0.39156   0.10665   0.18462   0.0000000000
C          C       0.38557   0.08305   0.27807   0.0000000000
C          C       0.40501   0.06493   0.23568   0.0000000000
C          C       0.43102   0.07004   0.09861   0.0000000000
C          C       0.43730   0.09346   0.00370   0.0000000000
C          C       0.41775   0.11154   0.04653   0.0000000000
C          C       0.44896   0.05319   0.06258   0.0000000000
C          C       0.46522   0.03749   0.03519   0.0000000000
C          C       0.48245   0.01996   0.01351   0.0000000000
C          C       0.50921   0.02235  -0.12325   0.0000000000
C          C       0.52634   0.00229  -0.13445   0.0000000000
H          H       0.36688   0.07877   0.37844   0.0000000000
H          H       0.39991   0.04806   0.30659   0.0000000000
H          H       0.45604   0.09762  -0.09705   0.0000000000
H          H       0.42293   0.12834  -0.02505   0.0000000000
H          H       0.45435   0.99583   0.23412   0.0000000000
C          C       0.37148   0.12430   0.23012   0.0000000000
N          N       0.37542   0.14689   0.12919   0.0000000000
H          H       0.14673   0.38015   0.39514   0.0000000000
C          C       0.72072   0.77150  -0.06001   0.0000000000
C          C       0.76439   0.79226   0.01359   0.0000000000
C          C       0.80873   0.77185  -0.10255   0.0000000000
C          C       0.82534   0.79258  -0.11856   0.0000000000
C          C       0.85121   0.79351   0.04601   0.0000000000
C          C       0.86769   0.81388   0.03463   0.0000000000
C          C       0.85860   0.83445  -0.13299   0.0000000000
C          C       0.83316   0.83373  -0.30315   0.0000000000
C          C       0.81729   0.81301  -0.30170   0.0000000000
H          H       0.77356   0.80804   0.06355   0.0000000000
H          H       0.85834   0.77934   0.18152   0.0000000000
H          H       0.88624   0.81371   0.15569   0.0000000000
H          H       0.82597   0.84808  -0.43294   0.0000000000
H          H       0.79959   0.81312  -0.43877   0.0000000000
C          C       0.22011   0.27197   0.05044   0.0000000000
C          C       0.26393   0.29267  -0.01271   0.0000000000
C          C       0.30802   0.27235   0.11475   0.0000000000
C          C       0.32470   0.29304   0.12845   0.0000000000
C          C       0.31670   0.31369   0.30824   0.0000000000
C          C       0.33277   0.33429   0.30849   0.0000000000
C          C       0.35824   0.33473   0.13802   0.0000000000
C          C       0.36722   0.31398  -0.02746   0.0000000000
C          C       0.35064   0.29366  -0.03541   0.0000000000
H          H       0.27320   0.30843  -0.06023   0.0000000000
H          H       0.29889   0.31403   0.44324   0.0000000000
H          H       0.32569   0.34878   0.43723   0.0000000000
H          H       0.38578   0.31360  -0.14898   0.0000000000
H          H       0.35775   0.27928  -0.16759   0.0000000000
C          C       0.10897   0.10611   0.17784   0.0000000000
C          C       0.11512   0.08251   0.27006   0.0000000000
C          C       0.09576   0.06435   0.22838   0.0000000000
C          C       0.06967   0.06944   0.09370   0.0000000000
C          C       0.06323   0.09287   0.00022   0.0000000000
C          C       0.08269   0.11097   0.04219   0.0000000000
C          C       0.05173   0.05261   0.05865   0.0000000000
C          C       0.03535   0.03704   0.03208   0.0000000000
C          C       0.01787   0.01972   0.01157   0.0000000000
C          C       0.99111   0.02245  -0.12317   0.0000000000
C          C       0.97365   0.00264  -0.13222   0.0000000000
H          H       0.13387   0.07826   0.36890   0.0000000000
H          H       0.10098   0.04747   0.29815   0.0000000000
H          H       0.04444   0.09702  -0.09870   0.0000000000
H          H       0.07738   0.12777  -0.02806   0.0000000000
H          H       0.04567   0.99522   0.23024   0.0000000000
C          C       0.12892   0.12383   0.22160   0.0000000000
N          N       0.12488   0.14635   0.11687   0.0000000000
H          H       0.35278   0.38104   0.33411   0.0000000000
H          H       0.14714   0.11940   0.33267   0.0000000000
C          C       0.39108   0.39402   0.17866   0.0000000000
C          C       0.38516   0.41764   0.27387   0.0000000000
C          C       0.40466   0.43567   0.23286   0.0000000000
C          C       0.43066   0.43042   0.09540   0.0000000000
C          C       0.43687   0.40696  -0.00104   0.0000000000
C          C       0.41726   0.38899   0.04033   0.0000000000
C          C       0.44868   0.44716   0.06016   0.0000000000
C          C       0.46504   0.46273   0.03315   0.0000000000
C          C       0.48236   0.48014   0.01222   0.0000000000
C          C       0.50907   0.47761  -0.12565   0.0000000000
C          C       0.52630   0.49756  -0.13555   0.0000000000
H          H       0.36648   0.42202   0.37455   0.0000000000
H          H       0.39962   0.45257   0.30505   0.0000000000
H          H       0.45561   0.40270  -0.10180   0.0000000000
H          H       0.42239   0.37217  -0.03250   0.0000000000
H          H       0.45442   0.50443   0.23605   0.0000000000
C          C       0.37098   0.37644   0.22300   0.0000000000
N          N       0.37489   0.35384   0.11975   0.0000000000
C          C       0.82196   0.74980  -0.14704   0.0000000000
C          C       0.73560   0.74976  -0.05885   0.0000000000
H          H       0.84225   0.74980  -0.21383   0.0000000000
C          C       0.67884   0.74964  -0.16551   0.0000000000
C          C       0.76503   0.74978  -0.05476   0.0000000000
H          H       0.65866   0.74957  -0.23707   0.0000000000
O          O       0.95100   0.48529  -0.29559   0.0000000000
C          C       0.92599   0.49641  -0.39580   0.0000000000
H          H       0.91275   0.48312  -0.51087   0.0000000000
H          H       0.92989   0.51013  -0.58391   0.0000000000
H          H       0.91554   0.50401  -0.17560   0.0000000000
O          O       0.52074   0.45752  -0.25578   0.0000000000
C          C       0.51114   0.43373  -0.28413   0.0000000000
H          H       0.52698   0.42315  -0.40772   0.0000000000
H          H       0.49265   0.43291  -0.43847   0.0000000000
H          H       0.50714   0.42631  -0.03295   0.0000000000
O          O       0.52098   0.04237  -0.25129   0.0000000000
C          C       0.51146   0.06620  -0.27878   0.0000000000
H          H       0.52734   0.07669  -0.40154   0.0000000000
H          H       0.50743   0.07368  -0.02736   0.0000000000
H          H       0.49299   0.06707  -0.43356   0.0000000000
O          O       0.97961   0.04261  -0.25140   0.0000000000
C          C       0.98954   0.06627  -0.28270   0.0000000000
H          H       0.97379   0.07692  -0.40551   0.0000000000
H          H       0.00796   0.06676  -0.43914   0.0000000000
H          H       0.99379   0.07385  -0.03265   0.0000000000
