data_Py-3PE-COF
_audit_creation_date              0000-00-00
_audit_creation_method            'LanYouShi'
_symmetry_space_group_name_H-M    'P1'
_cell_length_a                    48.8714981
_cell_length_b                    56.5419998
_cell_length_c                    3.9154999
_cell_angle_alpha                 90.1651001
_cell_angle_beta                  89.9432983
_cell_angle_gamma                 89.9203033
loop_
_atom_site_label
_atom_site_type_symbol
_atom_site_fract_x
_atom_site_fract_y
_atom_site_fract_z
_atom_site_U_iso_or_equiv
_atom_site_adp_type
_atom_site_occupancy
        C1          C  0.2791628  0.2720153  0.0566873    0.00000       Uiso       1.00
        C2          C  0.2353741  0.2926449 -0.0152136    0.00000       Uiso       1.00
        C3          C  0.1911638  0.2722587  0.1038154    0.00000       Uiso       1.00
        C4          C  0.1745107  0.2929859  0.1250146    0.00000       Uiso       1.00
        C5          C  0.1484189  0.2940971 -0.0340008    0.00000       Uiso       1.00
        C6          C  0.1318493  0.3144380 -0.0117705    0.00000       Uiso       1.00
        C7          C  0.1410207  0.3347836  0.1620140    0.00000       Uiso       1.00
        C8          C  0.1667862  0.3338926  0.3241972    0.00000       Uiso       1.00
        C9          C  0.1827683  0.3132506  0.3111645    0.00000       Uiso       1.00
        H1          H  0.2261138  0.3084027 -0.0637085    0.00000       Uiso       1.00
        H2          H  0.1411755  0.2800656 -0.1724144    0.00000       Uiso       1.00
        H3          H  0.1131215  0.3143992 -0.1286168    0.00000       Uiso       1.00
        H4          H  0.1741700  0.3480563  0.4569227    0.00000       Uiso       1.00
        H5          H  0.2007238  0.3132805  0.4423896    0.00000       Uiso       1.00
       C10          C  0.7797791  0.7715579 -0.0506665    0.00000       Uiso       1.00
       C11          C  0.7358338  0.7922509  0.0075325    0.00000       Uiso       1.00
       C12          C  0.6918526  0.7717162 -0.1186511    0.00000       Uiso       1.00
       C13          C  0.6750380  0.7923480 -0.1354907    0.00000       Uiso       1.00
       C14          C  0.6829306  0.8128841 -0.3167431    0.00000       Uiso       1.00
       C15          C  0.6667854  0.8334828 -0.3176949    0.00000       Uiso       1.00
       C16          C  0.6412888  0.8339946 -0.1477043    0.00000       Uiso       1.00
       C17          C  0.6323701  0.8133122  0.0178067    0.00000       Uiso       1.00
       C18          C  0.6490714  0.7930437  0.0277745    0.00000       Uiso       1.00
        H6          H  0.7264683  0.8080491  0.0517717    0.00000       Uiso       1.00
        H7          H  0.7007319  0.8131503 -0.4520442    0.00000       Uiso       1.00
        H8          H  0.6738301  0.8479175 -0.4464973    0.00000       Uiso       1.00
        H9          H  0.6137772  0.8129724  0.1384317    0.00000       Uiso       1.00
       H10          H  0.6420305  0.7787620  0.1614834    0.00000       Uiso       1.00
       C19          C  0.8912947  0.6058145 -0.2521689    0.00000       Uiso       1.00
       C20          C  0.8847156  0.5825496 -0.3582084    0.00000       Uiso       1.00
       C21          C  0.9036954  0.5639788 -0.3265385    0.00000       Uiso       1.00
       C22          C  0.9298528  0.5683041 -0.1881220    0.00000       Uiso       1.00
       C23          C  0.9368481  0.5914586 -0.0856500    0.00000       Uiso       1.00
       C24          C  0.9177437  0.6099763 -0.1173618    0.00000       Uiso       1.00
       C25          C  0.9472285  0.5510196 -0.1516482    0.00000       Uiso       1.00
       C26          C  0.9629504  0.5350450 -0.1129575    0.00000       Uiso       1.00
       C27          C  0.9802105  0.5178030 -0.0637702    0.00000       Uiso       1.00
       C28          C  0.0056981  0.5235012  0.0848296    0.00000       Uiso       1.00
       C29          C  0.0256249  0.5060615  0.1503824    0.00000       Uiso       1.00
       H11          H  0.8658783  0.5787899 -0.4586017    0.00000       Uiso       1.00
       H12          H  0.8980646  0.5473750 -0.4044920    0.00000       Uiso       1.00
       H13          H  0.9557626  0.5950866  0.0144919    0.00000       Uiso       1.00
       H14          H  0.9234102  0.6265346 -0.0392221    0.00000       Uiso       1.00
       H15          H  0.9899105  0.4592881 -0.1486118    0.00000       Uiso       1.00
       C30          C  0.8715222  0.6238525 -0.2817864    0.00000       Uiso       1.00
        N1          N  0.8756316  0.6460083 -0.1604702    0.00000       Uiso       1.00
       H16          H  0.6467585  0.8802572 -0.3397921    0.00000       Uiso       1.00
       C31          C  0.6084443  0.8933530 -0.1846241    0.00000       Uiso       1.00
       C32          C  0.6144332  0.9169475 -0.2780660    0.00000       Uiso       1.00
       C33          C  0.5949918  0.9350739 -0.2356845    0.00000       Uiso       1.00
       C34          C  0.5689803  0.9299564 -0.0986054    0.00000       Uiso       1.00
       C35          C  0.5626984  0.9065357 -0.0036993    0.00000       Uiso       1.00
       C36          C  0.5822497  0.8884566 -0.0465284    0.00000       Uiso       1.00
       C37          C  0.5510375  0.9468132 -0.0625789    0.00000       Uiso       1.00
       C38          C  0.5347838  0.9625086 -0.0351945    0.00000       Uiso       1.00
       C39          C  0.5175461  0.9800370 -0.0135052    0.00000       Uiso       1.00
       C40          C  0.4907952  0.9776530  0.1232452    0.00000       Uiso       1.00
       C41          C  0.4736624  0.9977096  0.1344469    0.00000       Uiso       1.00
       H17          H  0.6331248  0.9212301 -0.3784364    0.00000       Uiso       1.00
       H18          H  0.6000949  0.9519415 -0.3065946    0.00000       Uiso       1.00
       H19          H  0.5439582  0.9023784  0.0970524    0.00000       Uiso       1.00
       H20          H  0.5770714  0.8716586  0.0250480    0.00000       Uiso       1.00
       H21          H  0.5456548  0.0041666 -0.2341163    0.00000       Uiso       1.00
       C42          C  0.6285169  0.8757035 -0.2301249    0.00000       Uiso       1.00
        N2          N  0.6245794  0.8531060 -0.1291875    0.00000       Uiso       1.00
       H22          H  0.8532668  0.6198506 -0.3951435    0.00000       Uiso       1.00
       C43          C  0.2792837  0.2284962  0.0600104    0.00000       Uiso       1.00
       C44          C  0.2356062  0.2077419 -0.0135943    0.00000       Uiso       1.00
       C45          C  0.1912657  0.2281517  0.1025510    0.00000       Uiso       1.00
       C46          C  0.1746655  0.2074185  0.1185600    0.00000       Uiso       1.00
       C47          C  0.1487914  0.2064878 -0.0460073    0.00000       Uiso       1.00
       C48          C  0.1323139  0.1861174 -0.0346314    0.00000       Uiso       1.00
       C49          C  0.1413959  0.1655514  0.1329877    0.00000       Uiso       1.00
       C50          C  0.1668414  0.1662707  0.3031479    0.00000       Uiso       1.00
       C51          C  0.1827078  0.1869866  0.3016992    0.00000       Uiso       1.00
       H23          H  0.2264406  0.1919570 -0.0635537    0.00000       Uiso       1.00
       H24          H  0.1416586  0.2206622 -0.1815155    0.00000       Uiso       1.00
       H25          H  0.1137572  0.1862948 -0.1556940    0.00000       Uiso       1.00
       H26          H  0.1740307  0.1519219  0.4329401    0.00000       Uiso       1.00
       H27          H  0.2004091  0.1868829  0.4387693    0.00000       Uiso       1.00
       C52          C  0.7798936  0.7280338 -0.0504422    0.00000       Uiso       1.00
       C53          C  0.7360697  0.7073272  0.0127060    0.00000       Uiso       1.00
       C54          C  0.6919756  0.7276478 -0.1147512    0.00000       Uiso       1.00
       C55          C  0.6752989  0.7069600 -0.1284460    0.00000       Uiso       1.00
       C56          C  0.6832970  0.6863077 -0.3082404    0.00000       Uiso       1.00
       C57          C  0.6672278  0.6657076 -0.3084869    0.00000       Uiso       1.00
       C58          C  0.6417556  0.6652678 -0.1380196    0.00000       Uiso       1.00
       C59          C  0.6327825  0.6860240  0.0274625    0.00000       Uiso       1.00
       C60          C  0.6493642  0.7063363  0.0354085    0.00000       Uiso       1.00
       H28          H  0.7268015  0.6915701  0.0602347    0.00000       Uiso       1.00
       H29          H  0.7011133  0.6859672 -0.4432447    0.00000       Uiso       1.00
       H30          H  0.6743100  0.6512190 -0.4372293    0.00000       Uiso       1.00
       H31          H  0.6142232  0.6864022  0.1489810    0.00000       Uiso       1.00
       H32          H  0.6422532  0.7207219  0.1675915    0.00000       Uiso       1.00
       C61          C  0.8910341  0.8938879 -0.1778423    0.00000       Uiso       1.00
       C62          C  0.8848799  0.9174885 -0.2700595    0.00000       Uiso       1.00
       C63          C  0.9042358  0.9356521 -0.2283849    0.00000       Uiso       1.00
       C64          C  0.9303340  0.9305631 -0.0936990    0.00000       Uiso       1.00
       C65          C  0.9367670  0.9071335 -0.0002227    0.00000       Uiso       1.00
       C66          C  0.9173083  0.8890294 -0.0421901    0.00000       Uiso       1.00
       C67          C  0.9482713  0.9473920 -0.0586536    0.00000       Uiso       1.00
       C68          C  0.9646549  0.9629645 -0.0320799    0.00000       Uiso       1.00
       C69          C  0.9821346  0.9802780 -0.0115697    0.00000       Uiso       1.00
       C70          C  0.0088944  0.9775464  0.1231742    0.00000       Uiso       1.00
       C71          C  0.0263499  0.9973580  0.1322159    0.00000       Uiso       1.00
       H33          H  0.8661277  0.9217425 -0.3688976    0.00000       Uiso       1.00
       H34          H  0.8990206  0.9525257 -0.2981523    0.00000       Uiso       1.00
       H35          H  0.9555641  0.9029753  0.0987027    0.00000       Uiso       1.00
       H36          H  0.9226193  0.8722286  0.0280568    0.00000       Uiso       1.00
       H37          H  0.9543281  0.0047759 -0.2302379    0.00000       Uiso       1.00
       C72          C  0.8710812  0.8761659 -0.2216012    0.00000       Uiso       1.00
        N3          N  0.8751255  0.8536517 -0.1168731    0.00000       Uiso       1.00
       H38          H  0.6472201  0.6189578 -0.3341106    0.00000       Uiso       1.00
       H39          H  0.8528612  0.8806037 -0.3326716    0.00000       Uiso       1.00
       C73          C  0.6089246  0.6059839 -0.1786593    0.00000       Uiso       1.00
       C74          C  0.6148417  0.5823560 -0.2738734    0.00000       Uiso       1.00
       C75          C  0.5953357  0.5643256 -0.2328576    0.00000       Uiso       1.00
       C76          C  0.5693380  0.5695801 -0.0954019    0.00000       Uiso       1.00
       C77          C  0.5631295  0.5930362  0.0010354    0.00000       Uiso       1.00
       C78          C  0.5827423  0.6110116 -0.0403258    0.00000       Uiso       1.00
       C79          C  0.5513191  0.5528442 -0.0601583    0.00000       Uiso       1.00
       C80          C  0.5349600  0.5372666 -0.0331547    0.00000       Uiso       1.00
       C81          C  0.5176381  0.5198574 -0.0122227    0.00000       Uiso       1.00
       C82          C  0.4909281  0.5223948  0.1256467    0.00000       Uiso       1.00
       C83          C  0.4737039  0.5024418  0.1355459    0.00000       Uiso       1.00
       H40          H  0.6335222  0.5779806 -0.3745528    0.00000       Uiso       1.00
       H41          H  0.6003770  0.5474290 -0.3050511    0.00000       Uiso       1.00
       H42          H  0.5443949  0.5972964  0.1018027    0.00000       Uiso       1.00
       H43          H  0.5776110  0.6278349  0.0325048    0.00000       Uiso       1.00
       H44          H  0.5455827  0.4955732 -0.2360499    0.00000       Uiso       1.00
       C84          C  0.6290199  0.6235612 -0.2229963    0.00000       Uiso       1.00
        N4          N  0.6251069  0.6461651 -0.1197541    0.00000       Uiso       1.00
       C85          C  0.1780399  0.2502048  0.1470439    0.00000       Uiso       1.00
       C86          C  0.2644017  0.2502432  0.0588475    0.00000       Uiso       1.00
       H45          H  0.1577521  0.2501970  0.2138347    0.00000       Uiso       1.00
       C87          C  0.3211589  0.2503625  0.1655125    0.00000       Uiso       1.00
       C88          C  0.2349689  0.2502166  0.0547595    0.00000       Uiso       1.00
       H46          H  0.3413399  0.2504306  0.2370698    0.00000       Uiso       1.00
        O1          O  0.0489982  0.5147125  0.2955915    0.00000       Uiso       1.00
       C89          C  0.0740084  0.5035895  0.3958003    0.00000       Uiso       1.00
       H47          H  0.0872541  0.5168841  0.5108672    0.00000       Uiso       1.00
       H48          H  0.0701102  0.4898702  0.5839147    0.00000       Uiso       1.00
       H49          H  0.0844643  0.4959851  0.1755992    0.00000       Uiso       1.00
        O2          O  0.4792634  0.5424766  0.2557807    0.00000       Uiso       1.00
       C90          C  0.4888591  0.5662735  0.2841284    0.00000       Uiso       1.00
       H50          H  0.4730187  0.5768456  0.4077191    0.00000       Uiso       1.00
       H51          H  0.5073552  0.5670881  0.4384688    0.00000       Uiso       1.00
       H52          H  0.4928581  0.5736858  0.0329458    0.00000       Uiso       1.00
        O3          O  0.4790191  0.9576330  0.2512937    0.00000       Uiso       1.00
       C91          C  0.4885434  0.9337952  0.2787804    0.00000       Uiso       1.00
       H53          H  0.4726632  0.9233072  0.4015351    0.00000       Uiso       1.00
       H54          H  0.4925721  0.9263217  0.0273617    0.00000       Uiso       1.00
       H55          H  0.5070110  0.9329318  0.4335629    0.00000       Uiso       1.00
        O4          O  0.0203905  0.9573928  0.2514003    0.00000       Uiso       1.00
       C92          C  0.0104584  0.9337260  0.2827041    0.00000       Uiso       1.00
       H56          H  0.0262060  0.9230806  0.4055072    0.00000       Uiso       1.00
       H57          H  0.9920391  0.9332427  0.4391414    0.00000       Uiso       1.00
       H58          H  0.0062073  0.9261506  0.0326543    0.00000       Uiso       1.00
       C93          C  0.7208378  0.7279849 -0.0566873    0.00000       Uiso       1.00
       C94          C  0.7646265  0.7073552  0.0152136    0.00000       Uiso       1.00
       C95          C  0.8088367  0.7277414 -0.1038154    0.00000       Uiso       1.00
       C96          C  0.8254898  0.7070141 -0.1250146    0.00000       Uiso       1.00
       C97          C  0.8515816  0.7059031  0.0340008    0.00000       Uiso       1.00
       C98          C  0.8681512  0.6855622  0.0117705    0.00000       Uiso       1.00
       C99          C  0.8589799  0.6652166 -0.1620140    0.00000       Uiso       1.00
      C100          C  0.8332143  0.6661076 -0.3241972    0.00000       Uiso       1.00
      C101          C  0.8172322  0.6867496 -0.3111645    0.00000       Uiso       1.00
       H59          H  0.7738867  0.6915975  0.0637085    0.00000       Uiso       1.00
       H60          H  0.8588250  0.7199345  0.1724144    0.00000       Uiso       1.00
       H61          H  0.8868791  0.6856009  0.1286168    0.00000       Uiso       1.00
       H62          H  0.8258306  0.6519439 -0.4569227    0.00000       Uiso       1.00
       H63          H  0.7992768  0.6867197 -0.4423896    0.00000       Uiso       1.00
      C102          C  0.2202214  0.2284423  0.0506665    0.00000       Uiso       1.00
      C103          C  0.2641667  0.2077493 -0.0075325    0.00000       Uiso       1.00
      C104          C  0.3081480  0.2282840  0.1186511    0.00000       Uiso       1.00
      C105          C  0.3249626  0.2076522  0.1354907    0.00000       Uiso       1.00
      C106          C  0.3170699  0.1871161  0.3167431    0.00000       Uiso       1.00
      C107          C  0.3332151  0.1665174  0.3176949    0.00000       Uiso       1.00
      C108          C  0.3587117  0.1660056  0.1477043    0.00000       Uiso       1.00
      C109          C  0.3676305  0.1866880 -0.0178067    0.00000       Uiso       1.00
      C110          C  0.3509292  0.2069564 -0.0277745    0.00000       Uiso       1.00
       H64          H  0.2735323  0.1919511 -0.0517717    0.00000       Uiso       1.00
       H65          H  0.2992687  0.1868498  0.4520442    0.00000       Uiso       1.00
       H66          H  0.3261704  0.1520827  0.4464973    0.00000       Uiso       1.00
       H67          H  0.3862234  0.1870277 -0.1384317    0.00000       Uiso       1.00
       H68          H  0.3579701  0.2212381 -0.1614834    0.00000       Uiso       1.00
      C111          C  0.1087059  0.3941856  0.2521689    0.00000       Uiso       1.00
      C112          C  0.1152849  0.4174506  0.3582084    0.00000       Uiso       1.00
      C113          C  0.0963051  0.4360214  0.3265385    0.00000       Uiso       1.00
      C114          C  0.0701478  0.4316960  0.1881220    0.00000       Uiso       1.00
      C115          C  0.0631524  0.4085416  0.0856500    0.00000       Uiso       1.00
      C116          C  0.0822568  0.3900239  0.1173618    0.00000       Uiso       1.00
      C117          C  0.0527721  0.4489806  0.1516482    0.00000       Uiso       1.00
      C118          C  0.0370502  0.4649551  0.1129575    0.00000       Uiso       1.00
      C119          C  0.0197901  0.4821971  0.0637702    0.00000       Uiso       1.00
      C120          C  0.9943025  0.4764989 -0.0848296    0.00000       Uiso       1.00
      C121          C  0.9743757  0.4939386 -0.1503824    0.00000       Uiso       1.00
       H69          H  0.1341222  0.4212102  0.4586017    0.00000       Uiso       1.00
       H70          H  0.1019360  0.4526252  0.4044920    0.00000       Uiso       1.00
       H71          H  0.0442379  0.4049135 -0.0144919    0.00000       Uiso       1.00
       H72          H  0.0765903  0.3734655  0.0392221    0.00000       Uiso       1.00
       H73          H  0.0100901  0.5407121  0.1486118    0.00000       Uiso       1.00
      C122          C  0.1284783  0.3761476  0.2817864    0.00000       Uiso       1.00
        N5          N  0.1243689  0.3539919  0.1604702    0.00000       Uiso       1.00
       H74          H  0.3532421  0.1197429  0.3397921    0.00000       Uiso       1.00
      C123          C  0.3915563  0.1066471  0.1846241    0.00000       Uiso       1.00
      C124          C  0.3855674  0.0830527  0.2780660    0.00000       Uiso       1.00
      C125          C  0.4050088  0.0649262  0.2356845    0.00000       Uiso       1.00
      C126          C  0.4310202  0.0700438  0.0986054    0.00000       Uiso       1.00
      C127          C  0.4373022  0.0934644  0.0036993    0.00000       Uiso       1.00
      C128          C  0.4177508  0.1115436  0.0465284    0.00000       Uiso       1.00
      C129          C  0.4489630  0.0531870  0.0625789    0.00000       Uiso       1.00
      C130          C  0.4652168  0.0374915  0.0351945    0.00000       Uiso       1.00
      C131          C  0.4824545  0.0199631  0.0135052    0.00000       Uiso       1.00
      C132          C  0.5092053  0.0223472 -0.1232452    0.00000       Uiso       1.00
      C133          C  0.5263382  0.0022905 -0.1344469    0.00000       Uiso       1.00
       H75          H  0.3668758  0.0787700  0.3784364    0.00000       Uiso       1.00
       H76          H  0.3999057  0.0480587  0.3065946    0.00000       Uiso       1.00
       H77          H  0.4560423  0.0976218 -0.0970524    0.00000       Uiso       1.00
       H78          H  0.4229291  0.1283415 -0.0250480    0.00000       Uiso       1.00
       H79          H  0.4543458  0.9958335  0.2341163    0.00000       Uiso       1.00
      C134          C  0.3714837  0.1242967  0.2301249    0.00000       Uiso       1.00
        N6          N  0.3754211  0.1468941  0.1291875    0.00000       Uiso       1.00
       H80          H  0.1467337  0.3801495  0.3951435    0.00000       Uiso       1.00
      C135          C  0.7207168  0.7715039 -0.0600104    0.00000       Uiso       1.00
      C136          C  0.7643943  0.7922583  0.0135943    0.00000       Uiso       1.00
      C137          C  0.8087348  0.7718484 -0.1025510    0.00000       Uiso       1.00
      C138          C  0.8253351  0.7925817 -0.1185600    0.00000       Uiso       1.00
      C139          C  0.8512092  0.7935124  0.0460073    0.00000       Uiso       1.00
      C140          C  0.8676867  0.8138828  0.0346314    0.00000       Uiso       1.00
      C141          C  0.8586047  0.8344487 -0.1329877    0.00000       Uiso       1.00
      C142          C  0.8331591  0.8337294 -0.3031479    0.00000       Uiso       1.00
      C143          C  0.8172927  0.8130136 -0.3016992    0.00000       Uiso       1.00
       H81          H  0.7735600  0.8080431  0.0635537    0.00000       Uiso       1.00
       H82          H  0.8583420  0.7793380  0.1815155    0.00000       Uiso       1.00
       H83          H  0.8862433  0.8137053  0.1556940    0.00000       Uiso       1.00
       H84          H  0.8259698  0.8480782 -0.4329401    0.00000       Uiso       1.00
       H85          H  0.7995915  0.8131172 -0.4387693    0.00000       Uiso       1.00
      C144          C  0.2201069  0.2719663  0.0504422    0.00000       Uiso       1.00
      C145          C  0.2639309  0.2926729 -0.0127060    0.00000       Uiso       1.00
      C146          C  0.3080249  0.2723523  0.1147512    0.00000       Uiso       1.00
      C147          C  0.3247017  0.2930402  0.1284460    0.00000       Uiso       1.00
      C148          C  0.3167035  0.3136925  0.3082404    0.00000       Uiso       1.00
      C149          C  0.3327728  0.3342925  0.3084869    0.00000       Uiso       1.00
      C150          C  0.3582450  0.3347323  0.1380196    0.00000       Uiso       1.00
      C151          C  0.3672180  0.3139762 -0.0274625    0.00000       Uiso       1.00
      C152          C  0.3506364  0.2936639 -0.0354085    0.00000       Uiso       1.00
       H86          H  0.2731991  0.3084300 -0.0602347    0.00000       Uiso       1.00
       H87          H  0.2988873  0.3140329  0.4432447    0.00000       Uiso       1.00
       H88          H  0.3256906  0.3487811  0.4372293    0.00000       Uiso       1.00
       H89          H  0.3857774  0.3135979 -0.1489810    0.00000       Uiso       1.00
       H90          H  0.3577474  0.2792782 -0.1675915    0.00000       Uiso       1.00
      C153          C  0.1089664  0.1061123  0.1778423    0.00000       Uiso       1.00
      C154          C  0.1151207  0.0825116  0.2700595    0.00000       Uiso       1.00
      C155          C  0.0957648  0.0643480  0.2283849    0.00000       Uiso       1.00
      C156          C  0.0696665  0.0694371  0.0936990    0.00000       Uiso       1.00
      C157          C  0.0632336  0.0928667  0.0002227    0.00000       Uiso       1.00
      C158          C  0.0826923  0.1109707  0.0421901    0.00000       Uiso       1.00
      C159          C  0.0517293  0.0526081  0.0586536    0.00000       Uiso       1.00
      C160          C  0.0353457  0.0370357  0.0320799    0.00000       Uiso       1.00
      C161          C  0.0178659  0.0197221  0.0115697    0.00000       Uiso       1.00
      C162          C  0.9911061  0.0224538 -0.1231742    0.00000       Uiso       1.00
      C163          C  0.9736506  0.0026421 -0.1322159    0.00000       Uiso       1.00
       H91          H  0.1338729  0.0782577  0.3688976    0.00000       Uiso       1.00
       H92          H  0.1009800  0.0474745  0.2981523    0.00000       Uiso       1.00
       H93          H  0.0444365  0.0970249 -0.0987027    0.00000       Uiso       1.00
       H94          H  0.0773813  0.1277715 -0.0280568    0.00000       Uiso       1.00
       H95          H  0.0456725  0.9952242  0.2302379    0.00000       Uiso       1.00
      C164          C  0.1289193  0.1238342  0.2216012    0.00000       Uiso       1.00
        N7          N  0.1248751  0.1463484  0.1168731    0.00000       Uiso       1.00
       H96          H  0.3527804  0.3810423  0.3341106    0.00000       Uiso       1.00
       H97          H  0.1471393  0.1193964  0.3326716    0.00000       Uiso       1.00
      C165          C  0.3910759  0.3940163  0.1786593    0.00000       Uiso       1.00
      C166          C  0.3851589  0.4176441  0.2738734    0.00000       Uiso       1.00
      C167          C  0.4046649  0.4356745  0.2328576    0.00000       Uiso       1.00
      C168          C  0.4306626  0.4304200  0.0954019    0.00000       Uiso       1.00
      C169          C  0.4368711  0.4069640 -0.0010354    0.00000       Uiso       1.00
      C170          C  0.4172582  0.3889886  0.0403258    0.00000       Uiso       1.00
      C171          C  0.4486814  0.4471560  0.0601583    0.00000       Uiso       1.00
      C172          C  0.4650405  0.4627335  0.0331547    0.00000       Uiso       1.00
      C173          C  0.4823624  0.4801428  0.0122227    0.00000       Uiso       1.00
      C174          C  0.5090724  0.4776053 -0.1256467    0.00000       Uiso       1.00
      C175          C  0.5262966  0.4975584 -0.1355459    0.00000       Uiso       1.00
       H98          H  0.3664784  0.4220195  0.3745528    0.00000       Uiso       1.00
       H99          H  0.3996236  0.4525712  0.3050511    0.00000       Uiso       1.00
      H100          H  0.4556056  0.4027038 -0.1018027    0.00000       Uiso       1.00
      H101          H  0.4223896  0.3721652 -0.0325048    0.00000       Uiso       1.00
      H102          H  0.4544179  0.5044270  0.2360499    0.00000       Uiso       1.00
      C176          C  0.3709807  0.3764389  0.2229963    0.00000       Uiso       1.00
        N8          N  0.3748937  0.3538350  0.1197541    0.00000       Uiso       1.00
      C177          C  0.8219606  0.7497953 -0.1470439    0.00000       Uiso       1.00
      C178          C  0.7355989  0.7497570 -0.0588475    0.00000       Uiso       1.00
      H103          H  0.8422485  0.7498032 -0.2138347    0.00000       Uiso       1.00
      C179          C  0.6788418  0.7496377 -0.1655125    0.00000       Uiso       1.00
      C180          C  0.7650316  0.7497836 -0.0547595    0.00000       Uiso       1.00
      H104          H  0.6586606  0.7495695 -0.2370698    0.00000       Uiso       1.00
        O5          O  0.9510024  0.4852877 -0.2955915    0.00000       Uiso       1.00
      C181          C  0.9259921  0.4964107 -0.3958003    0.00000       Uiso       1.00
      H105          H  0.9127464  0.4831160 -0.5108672    0.00000       Uiso       1.00
      H106          H  0.9298904  0.5101300 -0.5839147    0.00000       Uiso       1.00
      H107          H  0.9155363  0.5040150 -0.1755992    0.00000       Uiso       1.00
        O6          O  0.5207372  0.4575236 -0.2557807    0.00000       Uiso       1.00
      C182          C  0.5111415  0.4337266 -0.2841284    0.00000       Uiso       1.00
      H108          H  0.5269819  0.4231546 -0.4077191    0.00000       Uiso       1.00
      H109          H  0.4926453  0.4329121 -0.4384688    0.00000       Uiso       1.00
      H110          H  0.5071424  0.4263143 -0.0329458    0.00000       Uiso       1.00
        O7          O  0.5209814  0.0423671 -0.2512937    0.00000       Uiso       1.00
      C183          C  0.5114572  0.0662049 -0.2787804    0.00000       Uiso       1.00
      H111          H  0.5273374  0.0766930 -0.4015351    0.00000       Uiso       1.00
      H112          H  0.5074284  0.0736784 -0.0273617    0.00000       Uiso       1.00
      H113          H  0.4929896  0.0670684 -0.4335629    0.00000       Uiso       1.00
        O8          O  0.9796101  0.0426074 -0.2514003    0.00000       Uiso       1.00
      C184          C  0.9895422  0.0662742 -0.2827041    0.00000       Uiso       1.00
      H114          H  0.9737945  0.0769195 -0.4055072    0.00000       Uiso       1.00
      H115          H  0.0079615  0.0667574 -0.4391414    0.00000       Uiso       1.00
      H116          H  0.9937932  0.0738496 -0.0326543    0.00000       Uiso       1.00
