data_crystal

_cell_length_a    15.14350
_cell_length_b    15.14350
_cell_length_c    19.96780
_cell_angle_alpha 90.00000
_cell_angle_beta  90.00000
_cell_angle_gamma 90.00000

_space_group_name_Hall 'P 1'
_space_group_name_H-M_alt  'P 1'

loop_
_symmetry_equiv_pos_as_xyz
'x,y,z' 

loop_
_atom_site_label
_atom_site_type_symbol
_atom_site_fract_x
_atom_site_fract_y
_atom_site_fract_z
C          C       0.31831   0.62220   0.64374 
C          C       0.68169   0.37780   0.64374 
C          C       0.87780   0.81831   0.14374 
C          C       0.12220   0.18169   0.14374 
C          C       0.18169   0.87780   0.85626 
C          C       0.81831   0.12220   0.85626 
C          C       0.62220   0.68169   0.35626 
C          C       0.37780   0.31831   0.35626 
C          C       0.40354   0.65603   0.63377 
C          C       0.59646   0.34397   0.63377 
C          C       0.84397   0.90354   0.13377 
C          C       0.15603   0.09646   0.13377 
C          C       0.09646   0.84397   0.86623 
C          C       0.90354   0.15603   0.86623 
C          C       0.65603   0.59646   0.36623 
C          C       0.34397   0.40354   0.36623 
C          C       0.46042   0.61681   0.58744 
C          C       0.53958   0.38319   0.58744 
C          C       0.88319   0.96042   0.08744 
C          C       0.11681   0.03958   0.08744 
C          C       0.03958   0.88319   0.91256 
C          C       0.96042   0.11681   0.91256 
C          C       0.61681   0.53958   0.41256 
C          C       0.38319   0.46042   0.41256 
C          C       0.43307   0.54422   0.54814 
C          C       0.56693   0.45578   0.54814 
C          C       0.95578   0.93307   0.04814 
C          C       0.04422   0.06693   0.04814 
C          C       0.06693   0.95578   0.95186 
C          C       0.93307   0.04422   0.95186 
C          C       0.54422   0.56693   0.45186 
C          C       0.45578   0.43307   0.45186 
C          C       0.34853   0.50840   0.56100 
C          C       0.65147   0.49160   0.56100 
C          C       0.99160   0.84853   0.06100 
C          C       0.00840   0.15147   0.06100 
C          C       0.15147   0.99160   0.93900 
C          C       0.84853   0.00840   0.93900 
C          C       0.50840   0.65147   0.43900 
C          C       0.49160   0.34853   0.43900 
C          C       0.29170   0.54772   0.60739 
C          C       0.70830   0.45228   0.60739 
C          C       0.95228   0.79170   0.10739 
C          C       0.04772   0.20830   0.10739 
C          C       0.20830   0.95228   0.89261 
C          C       0.79170   0.04772   0.89261 
C          C       0.54772   0.70830   0.39261 
C          C       0.45228   0.29170   0.39261 
H          H       0.42659   0.71246   0.66213 
H          H       0.57341   0.28754   0.66213 
H          H       0.78754   0.92659   0.16213 
H          H       0.21246   0.07341   0.16213 
H          H       0.07341   0.78754   0.83787 
H          H       0.92659   0.21246   0.83787 
H          H       0.71246   0.57341   0.33787 
H          H       0.28754   0.42659   0.33787 
H          H       0.52637   0.64347   0.58190 
H          H       0.47363   0.35653   0.58190 
H          H       0.85653   0.02637   0.08190 
H          H       0.14347   0.97363   0.08190 
H          H       0.97363   0.85653   0.91810 
H          H       0.02637   0.14347   0.91810 
H          H       0.64347   0.47363   0.41810 
H          H       0.35653   0.52637   0.41810 
H          H       0.32621   0.44871   0.53666 
H          H       0.67379   0.55129   0.53666 
H          H       0.05129   0.82621   0.03666 
H          H       0.94871   0.17379   0.03666 
H          H       0.17379   0.05129   0.96334 
H          H       0.82621   0.94871   0.96334 
H          H       0.44871   0.67379   0.46334 
H          H       0.55129   0.32621   0.46334 
H          H       0.22702   0.51909   0.61550 
H          H       0.77298   0.48091   0.61550 
H          H       0.98091   0.72702   0.11550 
H          H       0.01909   0.27298   0.11550 
H          H       0.27298   0.98091   0.88450 
H          H       0.72702   0.01909   0.88450 
H          H       0.51909   0.77298   0.38450 
H          H       0.48091   0.22702   0.38450 
N          N       0.27941   0.73120   0.72702 
N          N       0.72059   0.26880   0.72702 
N          N       0.76880   0.77941   0.22702 
N          N       0.23120   0.22059   0.22702 
N          N       0.22059   0.76880   0.77298 
N          N       0.77941   0.23120   0.77298 
N          N       0.73120   0.72059   0.27298 
N          N       0.26880   0.27941   0.27298 
C          C       0.25692   0.66244   0.69244 
C          C       0.74308   0.33756   0.69244 
C          C       0.83756   0.75692   0.19244 
C          C       0.16244   0.24308   0.19244 
C          C       0.24308   0.83756   0.80756 
C          C       0.75692   0.16244   0.80756 
C          C       0.66244   0.74308   0.30756 
C          C       0.33756   0.25692   0.30756 
H          H       0.19186   0.63394   0.69925 
H          H       0.80814   0.36606   0.69925 
H          H       0.86606   0.69186   0.19925 
H          H       0.13394   0.30814   0.19925 
H          H       0.30814   0.86606   0.80075 
H          H       0.69186   0.13394   0.80075 
H          H       0.63394   0.80814   0.30075 
H          H       0.36606   0.19186   0.30075 
C          C       0.50000   0.50000   0.50000 
C          C       0.00000   0.00000   0.00000 
