data_crystal

_cell_length_a    15.14350
_cell_length_b    15.14350
_cell_length_c    9.98390
_cell_angle_alpha 90.00000
_cell_angle_beta  90.00000
_cell_angle_gamma 90.00000

_space_group_name_Hall 'P 1'
_space_group_name_H-M_alt  'P 1'

loop_
_symmetry_equiv_pos_as_xyz
'x,y,z' 

loop_
_atom_site_label
_atom_site_type_symbol
_atom_site_fract_x
_atom_site_fract_y
_atom_site_fract_z
C          C       0.68169   0.62220   0.71252 
C          C       0.31831   0.37780   0.71252 
C          C       0.87780   0.18169   0.71252 
C          C       0.12220   0.81831   0.71252 
C          C       0.81831   0.87780   0.28748 
C          C       0.18169   0.12220   0.28748 
C          C       0.62220   0.31831   0.28748 
C          C       0.37780   0.68169   0.28748 
C          C       0.59646   0.65603   0.73247 
C          C       0.40354   0.34397   0.73247 
C          C       0.84397   0.09646   0.73247 
C          C       0.15603   0.90354   0.73247 
C          C       0.90354   0.84397   0.26753 
C          C       0.09646   0.15603   0.26753 
C          C       0.65603   0.40354   0.26753 
C          C       0.34397   0.59646   0.26753 
C          C       0.53958   0.61681   0.82511 
C          C       0.46042   0.38319   0.82511 
C          C       0.88319   0.03958   0.82511 
C          C       0.11681   0.96042   0.82511 
C          C       0.96042   0.88319   0.17489 
C          C       0.03958   0.11681   0.17489 
C          C       0.61681   0.46042   0.17489 
C          C       0.38319   0.53958   0.17489 
C          C       0.56693   0.54422   0.90373 
C          C       0.43307   0.45578   0.90373 
C          C       0.95578   0.06693   0.90373 
C          C       0.04422   0.93307   0.90373 
C          C       0.93307   0.95578   0.09627 
C          C       0.06693   0.04422   0.09627 
C          C       0.54422   0.43307   0.09627 
C          C       0.45578   0.56693   0.09627 
C          C       0.65147   0.50840   0.87799 
C          C       0.34853   0.49160   0.87799 
C          C       0.99160   0.15147   0.87799 
C          C       0.00840   0.84853   0.87799 
C          C       0.84853   0.99160   0.12201 
C          C       0.15147   0.00840   0.12201 
C          C       0.50840   0.34853   0.12201 
C          C       0.49160   0.65147   0.12201 
C          C       0.70830   0.54772   0.78522 
C          C       0.29170   0.45228   0.78522 
C          C       0.95228   0.20830   0.78522 
C          C       0.04772   0.79170   0.78522 
C          C       0.79170   0.95228   0.21478 
C          C       0.20830   0.04772   0.21478 
C          C       0.54772   0.29170   0.21478 
C          C       0.45228   0.70830   0.21478 
H          H       0.57341   0.71246   0.67575 
H          H       0.42659   0.28754   0.67575 
H          H       0.78754   0.07341   0.67575 
H          H       0.21246   0.92659   0.67575 
H          H       0.92659   0.78754   0.32425 
H          H       0.07341   0.21246   0.32425 
H          H       0.71246   0.42659   0.32425 
H          H       0.28754   0.57341   0.32425 
H          H       0.47363   0.64347   0.83620 
H          H       0.52637   0.35653   0.83620 
H          H       0.85653   0.97363   0.83620 
H          H       0.14347   0.02637   0.83620 
H          H       0.02637   0.85653   0.16380 
H          H       0.97363   0.14347   0.16380 
H          H       0.64347   0.52637   0.16380 
H          H       0.35653   0.47363   0.16380 
H          H       0.67379   0.44871   0.92668 
H          H       0.32621   0.55129   0.92668 
H          H       0.05129   0.17379   0.92668 
H          H       0.94871   0.82621   0.92668 
H          H       0.82621   0.05129   0.07332 
H          H       0.17379   0.94871   0.07332 
H          H       0.44871   0.32621   0.07332 
H          H       0.55129   0.67379   0.07332 
H          H       0.77298   0.51909   0.76900 
H          H       0.22702   0.48091   0.76900 
H          H       0.98091   0.27298   0.76900 
H          H       0.01909   0.72702   0.76900 
H          H       0.72702   0.98091   0.23100 
H          H       0.27298   0.01909   0.23100 
H          H       0.51909   0.22702   0.23100 
H          H       0.48091   0.77298   0.23100 
N          N       0.72059   0.73120   0.54597 
N          N       0.27941   0.26880   0.54597 
N          N       0.76880   0.22059   0.54597 
N          N       0.23120   0.77941   0.54597 
N          N       0.77941   0.76880   0.45403 
N          N       0.22059   0.23120   0.45403 
N          N       0.73120   0.27941   0.45403 
N          N       0.26880   0.72059   0.45403 
C          C       0.74308   0.66244   0.61513 
C          C       0.25692   0.33756   0.61513 
C          C       0.83756   0.24308   0.61513 
C          C       0.16244   0.75692   0.61513 
C          C       0.75692   0.83756   0.38487 
C          C       0.24308   0.16244   0.38487 
C          C       0.66244   0.25692   0.38487 
C          C       0.33756   0.74308   0.38487 
H          H       0.80814   0.63394   0.60150 
H          H       0.19186   0.36606   0.60150 
H          H       0.86606   0.30814   0.60150 
H          H       0.13394   0.69186   0.60150 
H          H       0.69186   0.86606   0.39850 
H          H       0.30814   0.13394   0.39850 
H          H       0.63394   0.19186   0.39850 
H          H       0.36606   0.80814   0.39850 
C          C       0.50000   0.50000   0.00000 
C          C       0.00000   0.00000   0.00000 
