data_crystal

_cell_length_a    21.41610
_cell_length_b    21.41610
_cell_length_c    13.31190
_cell_angle_alpha 90.00000
_cell_angle_beta  90.00000
_cell_angle_gamma 90.00000

_space_group_name_Hall 'P 1'
_space_group_name_H-M_alt  'P 1'

loop_
_symmetry_equiv_pos_as_xyz
'x,y,z' 

loop_
_atom_site_label
_atom_site_type_symbol
_atom_site_fract_x
_atom_site_fract_y
_atom_site_fract_z
C          C       0.52975   0.65194   0.78439 
C          C       0.97025   0.84806   0.28439 
C          C       0.34806   0.02975   0.03439 
C          C       0.15194   0.47025   0.53439 
C          C       0.47025   0.84806   0.46561 
C          C       0.02975   0.65194   0.96561 
C          C       0.65194   0.47025   0.21561 
C          C       0.84806   0.02975   0.71561 
C          C       0.02975   0.15194   0.28439 
C          C       0.47025   0.34806   0.78439 
C          C       0.84806   0.52975   0.53439 
C          C       0.65194   0.97025   0.03439 
C          C       0.97025   0.34806   0.96561 
C          C       0.52975   0.15194   0.46561 
C          C       0.15194   0.97025   0.71561 
C          C       0.34806   0.52975   0.21561 
C          C       0.47021   0.62625   0.79935 
C          C       0.02979   0.87375   0.29935 
C          C       0.37375   0.97021   0.04935 
C          C       0.12625   0.52979   0.54935 
C          C       0.52979   0.87375   0.45065 
C          C       0.97021   0.62625   0.95065 
C          C       0.62625   0.52979   0.20065 
C          C       0.87375   0.97021   0.70065 
C          C       0.97021   0.12625   0.29935 
C          C       0.52979   0.37375   0.79935 
C          C       0.87375   0.47021   0.54935 
C          C       0.62625   0.02979   0.04935 
C          C       0.02979   0.37375   0.95065 
C          C       0.47021   0.12625   0.45065 
C          C       0.12625   0.02979   0.70065 
C          C       0.37375   0.47021   0.20065 
C          C       0.46139   0.57820   0.86883 
C          C       0.03861   0.92180   0.36883 
C          C       0.42180   0.96139   0.11883 
C          C       0.07820   0.53861   0.61883 
C          C       0.53861   0.92180   0.38117 
C          C       0.96139   0.57820   0.88117 
C          C       0.57820   0.53861   0.13117 
C          C       0.92180   0.96139   0.63117 
C          C       0.96139   0.07820   0.36883 
C          C       0.53861   0.42180   0.86883 
C          C       0.92180   0.46139   0.61883 
C          C       0.57820   0.03861   0.11883 
C          C       0.03861   0.42180   0.88117 
C          C       0.46139   0.07820   0.38117 
C          C       0.07820   0.03861   0.63117 
C          C       0.42180   0.46139   0.13117 
C          C       0.51136   0.55558   0.92780 
C          C       0.98864   0.94442   0.42780 
C          C       0.44442   0.01136   0.17780 
C          C       0.05558   0.48864   0.67780 
C          C       0.48864   0.94442   0.32220 
C          C       0.01136   0.55558   0.82220 
C          C       0.55558   0.48864   0.07220 
C          C       0.94442   0.01136   0.57220 
C          C       0.01136   0.05558   0.42780 
C          C       0.48864   0.44442   0.92780 
C          C       0.94442   0.51136   0.67780 
C          C       0.55558   0.98864   0.17780 
C          C       0.98864   0.44442   0.82220 
C          C       0.51136   0.05558   0.32220 
C          C       0.05558   0.98864   0.57220 
C          C       0.44442   0.51136   0.07220 
C          C       0.57153   0.57994   0.90849 
C          C       0.92847   0.92006   0.40849 
C          C       0.42006   0.07153   0.15849 
C          C       0.07994   0.42847   0.65849 
C          C       0.42847   0.92006   0.34151 
C          C       0.07153   0.57994   0.84151 
C          C       0.57994   0.42847   0.09151 
C          C       0.92006   0.07153   0.59151 
C          C       0.07153   0.07994   0.40849 
C          C       0.42847   0.42006   0.90849 
C          C       0.92006   0.57153   0.65849 
C          C       0.57994   0.92847   0.15849 
C          C       0.92847   0.42006   0.84151 
C          C       0.57153   0.07994   0.34151 
C          C       0.07994   0.92847   0.59151 
C          C       0.42006   0.57153   0.09151 
C          C       0.58029   0.62801   0.83891 
C          C       0.91971   0.87199   0.33891 
C          C       0.37199   0.08029   0.08891 
C          C       0.12801   0.41971   0.58891 
C          C       0.41971   0.87199   0.41109 
C          C       0.08029   0.62801   0.91109 
C          C       0.62801   0.41971   0.16109 
C          C       0.87199   0.08029   0.66109 
C          C       0.08029   0.12801   0.33891 
C          C       0.41971   0.37199   0.83891 
C          C       0.87199   0.58029   0.58891 
C          C       0.62801   0.91971   0.08891 
C          C       0.91971   0.37199   0.91109 
C          C       0.58029   0.12801   0.41109 
C          C       0.12801   0.91971   0.66109 
C          C       0.37199   0.58029   0.16109 
H          H       0.43047   0.64294   0.75681 
H          H       0.06953   0.85706   0.25681 
H          H       0.35706   0.93047   0.00681 
H          H       0.14294   0.56953   0.50681 
H          H       0.56953   0.85706   0.49319 
H          H       0.93047   0.64294   0.99319 
H          H       0.64294   0.56953   0.24319 
H          H       0.85706   0.93047   0.74319 
H          H       0.93047   0.14294   0.25681 
H          H       0.56953   0.35706   0.75681 
H          H       0.85706   0.43047   0.50681 
H          H       0.64294   0.06953   0.00681 
H          H       0.06953   0.35706   0.99319 
H          H       0.43047   0.14294   0.49319 
H          H       0.14294   0.06953   0.74319 
H          H       0.35706   0.43047   0.24319 
H          H       0.41508   0.55855   0.87715 
H          H       0.08492   0.94145   0.37715 
H          H       0.44145   0.91508   0.12715 
H          H       0.05855   0.58492   0.62715 
H          H       0.58492   0.94145   0.37285 
H          H       0.91508   0.55855   0.87285 
H          H       0.55855   0.58492   0.12285 
H          H       0.94145   0.91508   0.62285 
H          H       0.91508   0.05855   0.37715 
H          H       0.58492   0.44145   0.87715 
H          H       0.94145   0.41508   0.62715 
H          H       0.55855   0.08492   0.12715 
H          H       0.08492   0.44145   0.87285 
H          H       0.41508   0.05855   0.37285 
H          H       0.05855   0.08492   0.62285 
H          H       0.44145   0.41508   0.12285 
H          H       0.61254   0.56125   0.94501 
H          H       0.88746   0.93875   0.44501 
H          H       0.43875   0.11254   0.19501 
H          H       0.06125   0.38746   0.69501 
H          H       0.38746   0.93875   0.30499 
H          H       0.11254   0.56125   0.80499 
H          H       0.56125   0.38746   0.05499 
H          H       0.93875   0.11254   0.55499 
H          H       0.11254   0.06125   0.44501 
H          H       0.38746   0.43875   0.94501 
H          H       0.93875   0.61254   0.69501 
H          H       0.56125   0.88746   0.19501 
H          H       0.88746   0.43875   0.80499 
H          H       0.61254   0.06125   0.30499 
H          H       0.06125   0.88746   0.55499 
H          H       0.43875   0.61254   0.05499 
H          H       0.62695   0.64604   0.82675 
H          H       0.87305   0.85396   0.32675 
H          H       0.35396   0.12695   0.07675 
H          H       0.14604   0.37305   0.57675 
H          H       0.37305   0.85396   0.42325 
H          H       0.12695   0.64604   0.92325 
H          H       0.64604   0.37305   0.17325 
H          H       0.85396   0.12695   0.67325 
H          H       0.12695   0.14604   0.32675 
H          H       0.37305   0.35396   0.82675 
H          H       0.85396   0.62695   0.57675 
H          H       0.64604   0.87305   0.07675 
H          H       0.87305   0.35396   0.92325 
H          H       0.62695   0.14604   0.42325 
H          H       0.14604   0.87305   0.67325 
H          H       0.35396   0.62695   0.17325 
N          N       0.49470   0.72590   0.65948 
N          N       0.00530   0.77410   0.15948 
N          N       0.27410   0.99470   0.90948 
N          N       0.22590   0.50530   0.40948 
N          N       0.50530   0.77410   0.59052 
N          N       0.99470   0.72590   0.09052 
N          N       0.72590   0.50530   0.34052 
N          N       0.77410   0.99470   0.84052 
N          N       0.99470   0.22590   0.15948 
N          N       0.50530   0.27410   0.65948 
N          N       0.77410   0.49470   0.40948 
N          N       0.72590   0.00530   0.90948 
N          N       0.00530   0.27410   0.09052 
N          N       0.49470   0.22590   0.59052 
N          N       0.22590   0.00530   0.84052 
N          N       0.27410   0.49470   0.34052 
C          C       0.54032   0.70276   0.71134 
C          C       0.95968   0.79724   0.21134 
C          C       0.29724   0.04032   0.96134 
C          C       0.20276   0.45968   0.46134 
C          C       0.45968   0.79724   0.53866 
C          C       0.04032   0.70276   0.03866 
C          C       0.70276   0.45968   0.28866 
C          C       0.79724   0.04032   0.78866 
C          C       0.04032   0.20276   0.21134 
C          C       0.45968   0.29724   0.71134 
C          C       0.79724   0.54032   0.46134 
C          C       0.70276   0.95968   0.96134 
C          C       0.95968   0.29724   0.03866 
C          C       0.54032   0.20276   0.53866 
C          C       0.20276   0.95968   0.78866 
C          C       0.29724   0.54032   0.28866 
H          H       0.58710   0.72104   0.70112 
H          H       0.91290   0.77896   0.20112 
H          H       0.27896   0.08710   0.95112 
H          H       0.22104   0.41290   0.45112 
H          H       0.41290   0.77896   0.54888 
H          H       0.08710   0.72104   0.04888 
H          H       0.72104   0.41290   0.29888 
H          H       0.77896   0.08710   0.79888 
H          H       0.08710   0.22104   0.20112 
H          H       0.41290   0.27896   0.70112 
H          H       0.77896   0.58710   0.45112 
H          H       0.72104   0.91290   0.95112 
H          H       0.91290   0.27896   0.04888 
H          H       0.58710   0.22104   0.54888 
H          H       0.22104   0.91290   0.79888 
H          H       0.27896   0.58710   0.29888 
C          C       0.50000   0.50000   0.00000 
C          C       0.00000   0.00000   0.50000 
C          C       0.50000   0.00000   0.25000 
C          C       0.00000   0.50000   0.75000 
