data_crystal

_cell_length_a    21.41610
_cell_length_b    21.41610
_cell_length_c    7.98712
_cell_angle_alpha 90.00000
_cell_angle_beta  90.00000
_cell_angle_gamma 90.00000

_space_group_name_Hall 'P 1'
_space_group_name_H-M_alt  'P 1'

loop_
_symmetry_equiv_pos_as_xyz
'x,y,z' 

loop_
_atom_site_label
_atom_site_type_symbol
_atom_site_fract_x
_atom_site_fract_y
_atom_site_fract_z
C          C       0.52975   0.15194   0.89065 
C          C       0.97025   0.34806   0.39065 
C          C       0.84806   0.02975   0.14065 
C          C       0.65194   0.47025   0.64065 
C          C       0.47025   0.34806   0.35935 
C          C       0.02975   0.15194   0.85935 
C          C       0.15194   0.47025   0.10935 
C          C       0.34806   0.02975   0.60935 
C          C       0.02975   0.65194   0.39065 
C          C       0.47025   0.84806   0.89065 
C          C       0.34806   0.52975   0.64065 
C          C       0.15194   0.97025   0.14065 
C          C       0.97025   0.84806   0.85935 
C          C       0.52975   0.65194   0.35935 
C          C       0.65194   0.97025   0.60935 
C          C       0.84806   0.52975   0.10935 
C          C       0.47021   0.12625   0.91559 
C          C       0.02979   0.37375   0.41559 
C          C       0.87375   0.97021   0.16559 
C          C       0.62625   0.52979   0.66559 
C          C       0.52979   0.37375   0.33441 
C          C       0.97021   0.12625   0.83441 
C          C       0.12625   0.52979   0.08441 
C          C       0.37375   0.97021   0.58441 
C          C       0.97021   0.62625   0.41559 
C          C       0.52979   0.87375   0.91559 
C          C       0.37375   0.47021   0.66559 
C          C       0.12625   0.02979   0.16559 
C          C       0.02979   0.87375   0.83441 
C          C       0.47021   0.62625   0.33441 
C          C       0.62625   0.02979   0.58441 
C          C       0.87375   0.47021   0.08441 
C          C       0.46139   0.07820   0.03139 
C          C       0.03861   0.42180   0.53139 
C          C       0.92180   0.96139   0.28139 
C          C       0.57820   0.53861   0.78139 
C          C       0.53861   0.42180   0.21861 
C          C       0.96139   0.07820   0.71861 
C          C       0.07820   0.53861   0.96861 
C          C       0.42180   0.96139   0.46861 
C          C       0.96139   0.57820   0.53139 
C          C       0.53861   0.92180   0.03139 
C          C       0.42180   0.46139   0.78139 
C          C       0.07820   0.03861   0.28139 
C          C       0.03861   0.92180   0.71861 
C          C       0.46139   0.57820   0.21861 
C          C       0.57820   0.03861   0.46861 
C          C       0.92180   0.46139   0.96861 
C          C       0.51136   0.05558   0.12966 
C          C       0.98864   0.44442   0.62966 
C          C       0.94442   0.01136   0.37966 
C          C       0.55558   0.48864   0.87966 
C          C       0.48864   0.44442   0.12034 
C          C       0.01136   0.05558   0.62034 
C          C       0.05558   0.48864   0.87034 
C          C       0.44442   0.01136   0.37034 
C          C       0.01136   0.55558   0.62966 
C          C       0.48864   0.94442   0.12966 
C          C       0.44442   0.51136   0.87966 
C          C       0.05558   0.98864   0.37966 
C          C       0.98864   0.94442   0.62034 
C          C       0.51136   0.55558   0.12034 
C          C       0.55558   0.98864   0.37034 
C          C       0.94442   0.51136   0.87034 
C          C       0.57153   0.07994   0.09749 
C          C       0.92847   0.42006   0.59749 
C          C       0.92006   0.07153   0.34749 
C          C       0.57994   0.42847   0.84749 
C          C       0.42847   0.42006   0.15251 
C          C       0.07153   0.07994   0.65251 
C          C       0.07994   0.42847   0.90251 
C          C       0.42006   0.07153   0.40251 
C          C       0.07153   0.57994   0.59749 
C          C       0.42847   0.92006   0.09749 
C          C       0.42006   0.57153   0.84749 
C          C       0.07994   0.92847   0.34749 
C          C       0.92847   0.92006   0.65251 
C          C       0.57153   0.57994   0.15251 
C          C       0.57994   0.92847   0.40251 
C          C       0.92006   0.57153   0.90251 
C          C       0.58029   0.12801   0.98152 
C          C       0.91971   0.37199   0.48152 
C          C       0.87199   0.08029   0.23152 
C          C       0.62801   0.41971   0.73152 
C          C       0.41971   0.37199   0.26848 
C          C       0.08029   0.12801   0.76848 
C          C       0.12801   0.41971   0.01848 
C          C       0.37199   0.08029   0.51848 
C          C       0.08029   0.62801   0.48152 
C          C       0.41971   0.87199   0.98152 
C          C       0.37199   0.58029   0.73152 
C          C       0.12801   0.91971   0.23152 
C          C       0.91971   0.87199   0.76848 
C          C       0.58029   0.62801   0.26848 
C          C       0.62801   0.91971   0.51848 
C          C       0.87199   0.58029   0.01848 
H          H       0.43047   0.14294   0.84469 
H          H       0.06953   0.35706   0.34469 
H          H       0.85706   0.93047   0.09469 
H          H       0.64294   0.56953   0.59469 
H          H       0.56953   0.35706   0.40531 
H          H       0.93047   0.14294   0.90531 
H          H       0.14294   0.56953   0.15531 
H          H       0.35706   0.93047   0.65531 
H          H       0.93047   0.64294   0.34469 
H          H       0.56953   0.85706   0.84469 
H          H       0.35706   0.43047   0.59469 
H          H       0.14294   0.06953   0.09469 
H          H       0.06953   0.85706   0.90531 
H          H       0.43047   0.64294   0.40531 
H          H       0.64294   0.06953   0.65531 
H          H       0.85706   0.43047   0.15531 
H          H       0.41508   0.05855   0.04525 
H          H       0.08492   0.44145   0.54525 
H          H       0.94145   0.91508   0.29525 
H          H       0.55855   0.58492   0.79525 
H          H       0.58492   0.44145   0.20475 
H          H       0.91508   0.05855   0.70475 
H          H       0.05855   0.58492   0.95475 
H          H       0.44145   0.91508   0.45475 
H          H       0.91508   0.55855   0.54525 
H          H       0.58492   0.94145   0.04525 
H          H       0.44145   0.41508   0.79525 
H          H       0.05855   0.08492   0.29525 
H          H       0.08492   0.94145   0.70475 
H          H       0.41508   0.55855   0.20475 
H          H       0.55855   0.08492   0.45475 
H          H       0.94145   0.41508   0.95475 
H          H       0.61254   0.06125   0.15835 
H          H       0.88746   0.43875   0.65835 
H          H       0.93875   0.11254   0.40835 
H          H       0.56125   0.38746   0.90835 
H          H       0.38746   0.43875   0.09165 
H          H       0.11254   0.06125   0.59165 
H          H       0.06125   0.38746   0.84165 
H          H       0.43875   0.11254   0.34165 
H          H       0.11254   0.56125   0.65835 
H          H       0.38746   0.93875   0.15835 
H          H       0.43875   0.61254   0.90835 
H          H       0.06125   0.88746   0.40835 
H          H       0.88746   0.93875   0.59165 
H          H       0.61254   0.56125   0.09165 
H          H       0.56125   0.88746   0.34165 
H          H       0.93875   0.61254   0.84165 
H          H       0.62695   0.14604   0.96125 
H          H       0.87305   0.35396   0.46125 
H          H       0.85396   0.12695   0.21125 
H          H       0.64604   0.37305   0.71125 
H          H       0.37305   0.35396   0.28875 
H          H       0.12695   0.14604   0.78875 
H          H       0.14604   0.37305   0.03875 
H          H       0.35396   0.12695   0.53875 
H          H       0.12695   0.64604   0.46125 
H          H       0.37305   0.85396   0.96125 
H          H       0.35396   0.62695   0.71125 
H          H       0.14604   0.87305   0.21125 
H          H       0.87305   0.85396   0.78875 
H          H       0.62695   0.64604   0.28875 
H          H       0.64604   0.87305   0.53875 
H          H       0.85396   0.62695   0.03875 
N          N       0.49470   0.22590   0.68246 
N          N       0.00530   0.27410   0.18246 
N          N       0.77410   0.99470   0.93246 
N          N       0.72590   0.50530   0.43246 
N          N       0.50530   0.27410   0.56754 
N          N       0.99470   0.22590   0.06754 
N          N       0.22590   0.50530   0.31754 
N          N       0.27410   0.99470   0.81754 
N          N       0.99470   0.72590   0.18246 
N          N       0.50530   0.77410   0.68246 
N          N       0.27410   0.49470   0.43246 
N          N       0.22590   0.00530   0.93246 
N          N       0.00530   0.77410   0.06754 
N          N       0.49470   0.72590   0.56754 
N          N       0.72590   0.00530   0.81754 
N          N       0.77410   0.49470   0.31754 
C          C       0.54032   0.20276   0.76891 
C          C       0.95968   0.29724   0.26891 
C          C       0.79724   0.04032   0.01891 
C          C       0.70276   0.45968   0.51891 
C          C       0.45968   0.29724   0.48109 
C          C       0.04032   0.20276   0.98109 
C          C       0.20276   0.45968   0.23109 
C          C       0.29724   0.04032   0.73109 
C          C       0.04032   0.70276   0.26891 
C          C       0.45968   0.79724   0.76891 
C          C       0.29724   0.54032   0.51891 
C          C       0.20276   0.95968   0.01891 
C          C       0.95968   0.79724   0.98109 
C          C       0.54032   0.70276   0.48109 
C          C       0.70276   0.95968   0.73109 
C          C       0.79724   0.54032   0.23109 
H          H       0.58710   0.22104   0.75187 
H          H       0.91290   0.27896   0.25187 
H          H       0.77896   0.08710   0.00187 
H          H       0.72104   0.41290   0.50187 
H          H       0.41290   0.27896   0.49813 
H          H       0.08710   0.22104   0.99813 
H          H       0.22104   0.41290   0.24813 
H          H       0.27896   0.08710   0.74813 
H          H       0.08710   0.72104   0.25187 
H          H       0.41290   0.77896   0.75187 
H          H       0.27896   0.58710   0.50187 
H          H       0.22104   0.91290   0.00187 
H          H       0.91290   0.77896   0.99813 
H          H       0.58710   0.72104   0.49813 
H          H       0.72104   0.91290   0.74813 
H          H       0.77896   0.58710   0.24813 
C          C       0.50000   0.00000   0.25000 
C          C       0.00000   0.50000   0.75000 
C          C       0.00000   0.00000   0.50000 
C          C       0.50000   0.50000   0.00000 
