data_crystal

_cell_length_a    21.41610
_cell_length_b    21.41610
_cell_length_c    19.39360
_cell_angle_alpha 90.00000
_cell_angle_beta  90.00000
_cell_angle_gamma 90.00000

_space_group_name_Hall 'P 1'
_space_group_name_H-M_alt  'P 1'

loop_
_symmetry_equiv_pos_as_xyz
'x,y,z' 

loop_
_atom_site_label
_atom_site_type_symbol
_atom_site_fract_x
_atom_site_fract_y
_atom_site_fract_z
C          C       0.52975   0.15194   0.17813 
C          C       0.97025   0.34806   0.67813 
C          C       0.84806   0.02975   0.42813 
C          C       0.65194   0.47025   0.92813 
C          C       0.47025   0.34806   0.07187 
C          C       0.02975   0.15194   0.57187 
C          C       0.15194   0.47025   0.82187 
C          C       0.34806   0.02975   0.32187 
C          C       0.02975   0.65194   0.67813 
C          C       0.47025   0.84806   0.17813 
C          C       0.34806   0.52975   0.92813 
C          C       0.15194   0.97025   0.42813 
C          C       0.97025   0.84806   0.57187 
C          C       0.52975   0.65194   0.07187 
C          C       0.65194   0.97025   0.32187 
C          C       0.84806   0.52975   0.82187 
C          C       0.47021   0.12625   0.18312 
C          C       0.02979   0.37375   0.68312 
C          C       0.87375   0.97021   0.43312 
C          C       0.62625   0.52979   0.93312 
C          C       0.52979   0.37375   0.06688 
C          C       0.97021   0.12625   0.56688 
C          C       0.12625   0.52979   0.81688 
C          C       0.37375   0.97021   0.31688 
C          C       0.97021   0.62625   0.68312 
C          C       0.52979   0.87375   0.18312 
C          C       0.37375   0.47021   0.93312 
C          C       0.12625   0.02979   0.43312 
C          C       0.02979   0.87375   0.56688 
C          C       0.47021   0.62625   0.06688 
C          C       0.62625   0.02979   0.31688 
C          C       0.87375   0.47021   0.81688 
C          C       0.46139   0.07820   0.20628 
C          C       0.03861   0.42180   0.70628 
C          C       0.92180   0.96139   0.45628 
C          C       0.57820   0.53861   0.95628 
C          C       0.53861   0.42180   0.04372 
C          C       0.96139   0.07820   0.54372 
C          C       0.07820   0.53861   0.79372 
C          C       0.42180   0.96139   0.29372 
C          C       0.96139   0.57820   0.70628 
C          C       0.53861   0.92180   0.20628 
C          C       0.42180   0.46139   0.95628 
C          C       0.07820   0.03861   0.45628 
C          C       0.03861   0.92180   0.54372 
C          C       0.46139   0.57820   0.04372 
C          C       0.57820   0.03861   0.29372 
C          C       0.92180   0.46139   0.79372 
C          C       0.51136   0.05558   0.22593 
C          C       0.98864   0.44442   0.72593 
C          C       0.94442   0.01136   0.47593 
C          C       0.55558   0.48864   0.97593 
C          C       0.48864   0.44442   0.02407 
C          C       0.01136   0.05558   0.52407 
C          C       0.05558   0.48864   0.77407 
C          C       0.44442   0.01136   0.27407 
C          C       0.01136   0.55558   0.72593 
C          C       0.48864   0.94442   0.22593 
C          C       0.44442   0.51136   0.97593 
C          C       0.05558   0.98864   0.47593 
C          C       0.98864   0.94442   0.52407 
C          C       0.51136   0.55558   0.02407 
C          C       0.55558   0.98864   0.27407 
C          C       0.94442   0.51136   0.77407 
C          C       0.57153   0.07994   0.21950 
C          C       0.92847   0.42006   0.71950 
C          C       0.92006   0.07153   0.46950 
C          C       0.57994   0.42847   0.96950 
C          C       0.42847   0.42006   0.03050 
C          C       0.07153   0.07994   0.53050 
C          C       0.07994   0.42847   0.78050 
C          C       0.42006   0.07153   0.28050 
C          C       0.07153   0.57994   0.71950 
C          C       0.42847   0.92006   0.21950 
C          C       0.42006   0.57153   0.96950 
C          C       0.07994   0.92847   0.46950 
C          C       0.92847   0.92006   0.53050 
C          C       0.57153   0.57994   0.03050 
C          C       0.57994   0.92847   0.28050 
C          C       0.92006   0.57153   0.78050 
C          C       0.58029   0.12801   0.19630 
C          C       0.91971   0.37199   0.69630 
C          C       0.87199   0.08029   0.44630 
C          C       0.62801   0.41971   0.94630 
C          C       0.41971   0.37199   0.05370 
C          C       0.08029   0.12801   0.55370 
C          C       0.12801   0.41971   0.80370 
C          C       0.37199   0.08029   0.30370 
C          C       0.08029   0.62801   0.69630 
C          C       0.41971   0.87199   0.19630 
C          C       0.37199   0.58029   0.94630 
C          C       0.12801   0.91971   0.44630 
C          C       0.91971   0.87199   0.55370 
C          C       0.58029   0.62801   0.05370 
C          C       0.62801   0.91971   0.30370 
C          C       0.87199   0.58029   0.80370 
H          H       0.43047   0.14294   0.16894 
H          H       0.06953   0.35706   0.66894 
H          H       0.85706   0.93047   0.41894 
H          H       0.64294   0.56953   0.91894 
H          H       0.56953   0.35706   0.08106 
H          H       0.93047   0.14294   0.58106 
H          H       0.14294   0.56953   0.83106 
H          H       0.35706   0.93047   0.33106 
H          H       0.93047   0.64294   0.66894 
H          H       0.56953   0.85706   0.16894 
H          H       0.35706   0.43047   0.91894 
H          H       0.14294   0.06953   0.41894 
H          H       0.06953   0.85706   0.58106 
H          H       0.43047   0.64294   0.08106 
H          H       0.64294   0.06953   0.33106 
H          H       0.85706   0.43047   0.83106 
H          H       0.41508   0.05855   0.20905 
H          H       0.08492   0.44145   0.70905 
H          H       0.94145   0.91508   0.45905 
H          H       0.55855   0.58492   0.95905 
H          H       0.58492   0.44145   0.04095 
H          H       0.91508   0.05855   0.54095 
H          H       0.05855   0.58492   0.79095 
H          H       0.44145   0.91508   0.29095 
H          H       0.91508   0.55855   0.70905 
H          H       0.58492   0.94145   0.20905 
H          H       0.44145   0.41508   0.95905 
H          H       0.05855   0.08492   0.45905 
H          H       0.08492   0.94145   0.54095 
H          H       0.41508   0.55855   0.04095 
H          H       0.55855   0.08492   0.29095 
H          H       0.94145   0.41508   0.79095 
H          H       0.61254   0.06125   0.23167 
H          H       0.88746   0.43875   0.73167 
H          H       0.93875   0.11254   0.48167 
H          H       0.56125   0.38746   0.98167 
H          H       0.38746   0.43875   0.01833 
H          H       0.11254   0.06125   0.51833 
H          H       0.06125   0.38746   0.76833 
H          H       0.43875   0.11254   0.26833 
H          H       0.11254   0.56125   0.73167 
H          H       0.38746   0.93875   0.23167 
H          H       0.43875   0.61254   0.98167 
H          H       0.06125   0.88746   0.48167 
H          H       0.88746   0.93875   0.51833 
H          H       0.61254   0.56125   0.01833 
H          H       0.56125   0.88746   0.26833 
H          H       0.93875   0.61254   0.76833 
H          H       0.62695   0.14604   0.19225 
H          H       0.87305   0.35396   0.69225 
H          H       0.85396   0.12695   0.44225 
H          H       0.64604   0.37305   0.94225 
H          H       0.37305   0.35396   0.05775 
H          H       0.12695   0.14604   0.55775 
H          H       0.14604   0.37305   0.80775 
H          H       0.35396   0.12695   0.30775 
H          H       0.12695   0.64604   0.69225 
H          H       0.37305   0.85396   0.19225 
H          H       0.35396   0.62695   0.94225 
H          H       0.14604   0.87305   0.44225 
H          H       0.87305   0.85396   0.55775 
H          H       0.62695   0.64604   0.05775 
H          H       0.64604   0.87305   0.30775 
H          H       0.85396   0.62695   0.80775 
N          N       0.49470   0.22590   0.13649 
N          N       0.00530   0.27410   0.63649 
N          N       0.77410   0.99470   0.38649 
N          N       0.72590   0.50530   0.88649 
N          N       0.50530   0.27410   0.11351 
N          N       0.99470   0.22590   0.61351 
N          N       0.22590   0.50530   0.86351 
N          N       0.27410   0.99470   0.36351 
N          N       0.99470   0.72590   0.63649 
N          N       0.50530   0.77410   0.13649 
N          N       0.27410   0.49470   0.88649 
N          N       0.22590   0.00530   0.38649 
N          N       0.00530   0.77410   0.61351 
N          N       0.49470   0.72590   0.11351 
N          N       0.72590   0.00530   0.36351 
N          N       0.77410   0.49470   0.86351 
C          C       0.54032   0.20276   0.15378 
C          C       0.95968   0.29724   0.65378 
C          C       0.79724   0.04032   0.40378 
C          C       0.70276   0.45968   0.90378 
C          C       0.45968   0.29724   0.09622 
C          C       0.04032   0.20276   0.59622 
C          C       0.20276   0.45968   0.84622 
C          C       0.29724   0.04032   0.34622 
C          C       0.04032   0.70276   0.65378 
C          C       0.45968   0.79724   0.15378 
C          C       0.29724   0.54032   0.90378 
C          C       0.20276   0.95968   0.40378 
C          C       0.95968   0.79724   0.59622 
C          C       0.54032   0.70276   0.09622 
C          C       0.70276   0.95968   0.34622 
C          C       0.79724   0.54032   0.84622 
H          H       0.58710   0.22104   0.15037 
H          H       0.91290   0.27896   0.65037 
H          H       0.77896   0.08710   0.40037 
H          H       0.72104   0.41290   0.90037 
H          H       0.41290   0.27896   0.09963 
H          H       0.08710   0.22104   0.59963 
H          H       0.22104   0.41290   0.84963 
H          H       0.27896   0.08710   0.34963 
H          H       0.08710   0.72104   0.65037 
H          H       0.41290   0.77896   0.15037 
H          H       0.27896   0.58710   0.90037 
H          H       0.22104   0.91290   0.40037 
H          H       0.91290   0.77896   0.59963 
H          H       0.58710   0.72104   0.09963 
H          H       0.72104   0.91290   0.34963 
H          H       0.77896   0.58710   0.84963 
C          C       0.50000   0.00000   0.25000 
C          C       0.00000   0.50000   0.75000 
C          C       0.00000   0.00000   0.50000 
C          C       0.50000   0.50000   0.00000 
