data_crystal

_cell_length_a    38.74320
_cell_length_b    38.74320
_cell_length_c    7.12540
_cell_angle_alpha 90.00000
_cell_angle_beta  90.00000
_cell_angle_gamma 120.00000

_space_group_name_Hall 'P 1'
_space_group_name_H-M_alt  'P 1'

loop_
_symmetry_equiv_pos_as_xyz
'x,y,z' 

loop_
_atom_site_label
_atom_site_type_symbol
_atom_site_fract_x
_atom_site_fract_y
_atom_site_fract_z
C          C       0.35284   0.64646   0.25004 
C          C       0.35354   0.70638   0.25004 
C          C       0.29362   0.64716   0.25004 
C          C       0.64716   0.35354   0.25004 
C          C       0.64646   0.29362   0.25004 
C          C       0.70638   0.35284   0.25004 
N          N       0.68626   0.37184   0.25004 
N          N       0.62816   0.31442   0.25004 
N          N       0.68558   0.31374   0.25004 
N          N       0.31374   0.62816   0.25004 
N          N       0.37184   0.68558   0.25004 
N          N       0.31442   0.68626   0.25004 
C          C       0.74727   0.37292   0.25004 
C          C       0.62708   0.37435   0.25004 
C          C       0.62565   0.25273   0.25004 
C          C       0.25273   0.62708   0.25004 
C          C       0.37292   0.62565   0.25004 
C          C       0.37435   0.74727   0.25004 
C          C       0.76894   0.41385   0.25004 
C          C       0.58615   0.35509   0.25004 
C          C       0.64491   0.23106   0.25004 
C          C       0.23106   0.58615   0.25004 
C          C       0.41385   0.64491   0.25004 
C          C       0.35509   0.76894   0.25004 
C          C       0.80957   0.43385   0.25004 
C          C       0.56615   0.37572   0.25004 
C          C       0.62428   0.19043   0.25004 
C          C       0.19043   0.56615   0.25004 
C          C       0.43385   0.62428   0.25004 
C          C       0.37572   0.80957   0.25004 
C          C       0.82997   0.41353   0.25004 
C          C       0.58647   0.41644   0.25004 
C          C       0.58356   0.17003   0.25004 
C          C       0.17003   0.58647   0.25004 
C          C       0.41353   0.58356   0.25004 
C          C       0.41644   0.82997   0.25004 
C          C       0.80885   0.37296   0.25004 
C          C       0.62704   0.43589   0.25004 
C          C       0.56411   0.19115   0.25004 
C          C       0.19115   0.62704   0.25004 
C          C       0.37296   0.56411   0.25004 
C          C       0.43589   0.80885   0.25004 
C          C       0.76823   0.35294   0.25004 
C          C       0.64706   0.41529   0.25004 
C          C       0.58471   0.23177   0.25004 
C          C       0.23177   0.64706   0.25004 
C          C       0.35294   0.58471   0.25004 
C          C       0.41529   0.76823   0.25004 
N          N       0.86884   0.43003   0.25004 
N          N       0.56997   0.43881   0.25004 
N          N       0.56119   0.13116   0.25004 
N          N       0.13116   0.56997   0.25004 
N          N       0.43003   0.56119   0.25004 
N          N       0.43881   0.86884   0.25004 
C          C       0.89716   0.46739   0.25004 
C          C       0.53261   0.42977   0.25004 
C          C       0.57023   0.10284   0.25004 
C          C       0.10284   0.53261   0.25004 
C          C       0.46739   0.57023   0.25004 
C          C       0.42977   0.89716   0.25004 
C          C       0.93618   0.47755   0.25004 
C          C       0.52245   0.45863   0.25004 
C          C       0.54137   0.06382   0.25004 
C          C       0.06382   0.52245   0.25004 
C          C       0.47755   0.54137   0.25004 
C          C       0.45863   0.93618   0.25004 
C          C       0.96624   0.51596   0.25004 
C          C       0.48404   0.45028   0.25004 
C          C       0.54972   0.03376   0.25004 
C          C       0.03376   0.48404   0.25004 
C          C       0.51596   0.54972   0.25004 
C          C       0.45028   0.96624   0.25004 
S          S       0.95175   0.44366   0.25004 
S          S       0.55634   0.50809   0.25004 
S          S       0.49191   0.04825   0.25004 
S          S       0.04825   0.55634   0.25004 
S          S       0.44366   0.49191   0.25004 
S          S       0.50809   0.95175   0.25004 
C          C       0.99834   0.48214   0.25004 
C          C       0.51786   0.51620   0.25004 
C          C       0.48380   0.00166   0.25004 
C          C       0.00166   0.51786   0.25004 
C          C       0.48214   0.48380   0.25004 
C          C       0.51620   0.99834   0.25004 
H          H       0.75524   0.42966   0.25004 
H          H       0.57034   0.32558   0.25004 
H          H       0.67442   0.24476   0.25004 
H          H       0.24476   0.57034   0.25004 
H          H       0.42966   0.67442   0.25004 
H          H       0.32558   0.75524   0.25004 
H          H       0.82399   0.46327   0.25004 
H          H       0.53673   0.36072   0.25004 
H          H       0.63928   0.17601   0.25004 
H          H       0.17601   0.53673   0.25004 
H          H       0.46327   0.63928   0.25004 
H          H       0.36072   0.82399   0.25004 
H          H       0.82325   0.35783   0.25004 
H          H       0.64217   0.46542   0.25004 
H          H       0.53458   0.17675   0.25004 
H          H       0.17675   0.64217   0.25004 
H          H       0.35783   0.53458   0.25004 
H          H       0.46542   0.82325   0.25004 
H          H       0.75406   0.32342   0.25004 
H          H       0.67658   0.43064   0.25004 
H          H       0.56936   0.24594   0.25004 
H          H       0.24594   0.67658   0.25004 
H          H       0.32342   0.56936   0.25004 
H          H       0.43064   0.75406   0.25004 
H          H       0.89041   0.48886   0.25004 
H          H       0.51114   0.40155   0.25004 
H          H       0.59845   0.10959   0.25004 
H          H       0.10959   0.51114   0.25004 
H          H       0.48886   0.59845   0.25004 
H          H       0.40155   0.89041   0.25004 
H          H       0.96297   0.53967   0.25004 
H          H       0.46033   0.42330   0.25004 
H          H       0.57670   0.03703   0.25004 
H          H       0.03703   0.46033   0.25004 
H          H       0.53967   0.57670   0.25004 
H          H       0.42330   0.96297   0.25004 
C          C       0.35284   0.64646   0.75004 
C          C       0.35354   0.70638   0.75004 
C          C       0.29362   0.64716   0.75004 
C          C       0.64716   0.35354   0.75004 
C          C       0.64646   0.29362   0.75004 
C          C       0.70638   0.35284   0.75004 
N          N       0.68626   0.37184   0.75004 
N          N       0.62816   0.31442   0.75004 
N          N       0.68558   0.31374   0.75004 
N          N       0.31374   0.62816   0.75004 
N          N       0.37184   0.68558   0.75004 
N          N       0.31442   0.68626   0.75004 
C          C       0.74727   0.37292   0.75004 
C          C       0.62708   0.37435   0.75004 
C          C       0.62565   0.25273   0.75004 
C          C       0.25273   0.62708   0.75004 
C          C       0.37292   0.62565   0.75004 
C          C       0.37435   0.74727   0.75004 
C          C       0.76894   0.41385   0.75004 
C          C       0.58615   0.35509   0.75004 
C          C       0.64491   0.23106   0.75004 
C          C       0.23106   0.58615   0.75004 
C          C       0.41385   0.64491   0.75004 
C          C       0.35509   0.76894   0.75004 
C          C       0.80957   0.43385   0.75004 
C          C       0.56615   0.37572   0.75004 
C          C       0.62428   0.19043   0.75004 
C          C       0.19043   0.56615   0.75004 
C          C       0.43385   0.62428   0.75004 
C          C       0.37572   0.80957   0.75004 
C          C       0.82997   0.41353   0.75004 
C          C       0.58647   0.41644   0.75004 
C          C       0.58356   0.17003   0.75004 
C          C       0.17003   0.58647   0.75004 
C          C       0.41353   0.58356   0.75004 
C          C       0.41644   0.82997   0.75004 
C          C       0.80885   0.37296   0.75004 
C          C       0.62704   0.43589   0.75004 
C          C       0.56411   0.19115   0.75004 
C          C       0.19115   0.62704   0.75004 
C          C       0.37296   0.56411   0.75004 
C          C       0.43589   0.80885   0.75004 
C          C       0.76823   0.35294   0.75004 
C          C       0.64706   0.41529   0.75004 
C          C       0.58471   0.23177   0.75004 
C          C       0.23177   0.64706   0.75004 
C          C       0.35294   0.58471   0.75004 
C          C       0.41529   0.76823   0.75004 
N          N       0.86884   0.43003   0.75004 
N          N       0.56997   0.43881   0.75004 
N          N       0.56119   0.13116   0.75004 
N          N       0.13116   0.56997   0.75004 
N          N       0.43003   0.56119   0.75004 
N          N       0.43881   0.86884   0.75004 
C          C       0.89716   0.46739   0.75004 
C          C       0.53261   0.42977   0.75004 
C          C       0.57023   0.10284   0.75004 
C          C       0.10284   0.53261   0.75004 
C          C       0.46739   0.57023   0.75004 
C          C       0.42977   0.89716   0.75004 
C          C       0.93618   0.47755   0.75004 
C          C       0.52245   0.45863   0.75004 
C          C       0.54137   0.06382   0.75004 
C          C       0.06382   0.52245   0.75004 
C          C       0.47755   0.54137   0.75004 
C          C       0.45863   0.93618   0.75004 
C          C       0.96624   0.51596   0.75004 
C          C       0.48404   0.45028   0.75004 
C          C       0.54972   0.03376   0.75004 
C          C       0.03376   0.48404   0.75004 
C          C       0.51596   0.54972   0.75004 
C          C       0.45028   0.96624   0.75004 
S          S       0.95175   0.44366   0.75004 
S          S       0.55634   0.50809   0.75004 
S          S       0.49191   0.04825   0.75004 
S          S       0.04825   0.55634   0.75004 
S          S       0.44366   0.49191   0.75004 
S          S       0.50809   0.95175   0.75004 
C          C       0.99834   0.48214   0.75004 
C          C       0.51786   0.51620   0.75004 
C          C       0.48380   0.00166   0.75004 
C          C       0.00166   0.51786   0.75004 
C          C       0.48214   0.48380   0.75004 
C          C       0.51620   0.99834   0.75004 
H          H       0.75524   0.42966   0.75004 
H          H       0.57034   0.32558   0.75004 
H          H       0.67442   0.24476   0.75004 
H          H       0.24476   0.57034   0.75004 
H          H       0.42966   0.67442   0.75004 
H          H       0.32558   0.75524   0.75004 
H          H       0.82399   0.46327   0.75004 
H          H       0.53673   0.36072   0.75004 
H          H       0.63928   0.17601   0.75004 
H          H       0.17601   0.53673   0.75004 
H          H       0.46327   0.63928   0.75004 
H          H       0.36072   0.82399   0.75004 
H          H       0.82325   0.35783   0.75004 
H          H       0.64217   0.46542   0.75004 
H          H       0.53458   0.17675   0.75004 
H          H       0.17675   0.64217   0.75004 
H          H       0.35783   0.53458   0.75004 
H          H       0.46542   0.82325   0.75004 
H          H       0.75406   0.32342   0.75004 
H          H       0.67658   0.43064   0.75004 
H          H       0.56936   0.24594   0.75004 
H          H       0.24594   0.67658   0.75004 
H          H       0.32342   0.56936   0.75004 
H          H       0.43064   0.75406   0.75004 
H          H       0.89041   0.48886   0.75004 
H          H       0.51114   0.40155   0.75004 
H          H       0.59845   0.10959   0.75004 
H          H       0.10959   0.51114   0.75004 
H          H       0.48886   0.59845   0.75004 
H          H       0.40155   0.89041   0.75004 
H          H       0.96297   0.53967   0.75004 
H          H       0.46033   0.42330   0.75004 
H          H       0.57670   0.03703   0.75004 
H          H       0.03703   0.46033   0.75004 
H          H       0.53967   0.57670   0.75004 
H          H       0.42330   0.96297   0.75004 
