data_crystal

_cell_length_a    52.01620
_cell_length_b    52.01620
_cell_length_c    6.88000
_cell_angle_alpha 90.00000
_cell_angle_beta  90.00000
_cell_angle_gamma 120.00000

_space_group_name_Hall 'P 1'
_space_group_name_H-M_alt  'P 1'

loop_
_symmetry_equiv_pos_as_xyz
'x,y,z' 

loop_
_atom_site_label
_atom_site_type_symbol
_atom_site_fract_x
_atom_site_fract_y
_atom_site_fract_z
C          C       0.47301   0.00061   0.28535 
C          C       0.99939   0.47240   0.28535 
C          C       0.52760   0.52699   0.28535 
C          C       0.52699   0.99939   0.28535 
C          C       0.00061   0.52760   0.28535 
C          C       0.47240   0.47301   0.28535 
C          C       0.47280   0.50065   0.27920 
C          C       0.49935   0.97215   0.27920 
C          C       0.02785   0.52720   0.27920 
C          C       0.52720   0.49935   0.27920 
C          C       0.50065   0.02785   0.27920 
C          C       0.97215   0.47280   0.27920 
C          C       0.50058   0.52782   0.29146 
C          C       0.47218   0.97276   0.29146 
C          C       0.02724   0.49942   0.29146 
C          C       0.49942   0.47218   0.29146 
C          C       0.52782   0.02724   0.29146 
C          C       0.97276   0.50058   0.29146 
C          C       0.50273   0.55610   0.31157 
C          C       0.44390   0.94663   0.31157 
C          C       0.05337   0.49727   0.31157 
C          C       0.49727   0.44390   0.31157 
C          C       0.55610   0.05337   0.31157 
C          C       0.94663   0.50273   0.31157 
C          C       0.52986   0.58350   0.30095 
C          C       0.41650   0.94636   0.30095 
C          C       0.05364   0.47014   0.30095 
C          C       0.47014   0.41650   0.30095 
C          C       0.58350   0.05364   0.30095 
C          C       0.94636   0.52986   0.30095 
C          C       0.55604   0.58164   0.28642 
C          C       0.41836   0.97440   0.28642 
C          C       0.02560   0.44396   0.28642 
C          C       0.44396   0.41836   0.28642 
C          C       0.58164   0.02560   0.28642 
C          C       0.97440   0.55604   0.28642 
C          C       0.55532   0.55410   0.28519 
C          C       0.44590   0.00122   0.28519 
C          C       0.99878   0.44468   0.28519 
C          C       0.44468   0.44590   0.28519 
C          C       0.55410   0.99878   0.28519 
C          C       0.00122   0.55532   0.28519 
C          C       0.58225   0.55361   0.28347 
C          C       0.44639   0.02864   0.28347 
C          C       0.97136   0.41775   0.28347 
C          C       0.41775   0.44639   0.28347 
C          C       0.55361   0.97136   0.28347 
C          C       0.02864   0.58225   0.28347 
C          C       0.58290   0.52678   0.26814 
C          C       0.47322   0.05612   0.26814 
C          C       0.94388   0.41710   0.26814 
C          C       0.41710   0.47322   0.26814 
C          C       0.52678   0.94388   0.26814 
C          C       0.05612   0.58290   0.26814 
C          C       0.55492   0.50028   0.25848 
C          C       0.49972   0.05464   0.25848 
C          C       0.94536   0.44508   0.25848 
C          C       0.44508   0.49972   0.25848 
C          C       0.50028   0.94536   0.25848 
C          C       0.05464   0.55492   0.25848 
C          C       0.53068   0.61143   0.30272 
C          C       0.38857   0.91925   0.30272 
C          C       0.08075   0.46932   0.30272 
C          C       0.46932   0.38857   0.30272 
C          C       0.61143   0.08075   0.30272 
C          C       0.91925   0.53068   0.30272 
C          C       0.38976   0.47360   0.26389 
C          C       0.52640   0.91616   0.26389 
C          C       0.08384   0.61024   0.26389 
C          C       0.61024   0.52640   0.26389 
C          C       0.47360   0.08384   0.26389 
C          C       0.91616   0.38976   0.26389 
C          C       0.61213   0.50159   0.33048 
C          C       0.49841   0.11054   0.33048 
C          C       0.88946   0.38787   0.33048 
C          C       0.38787   0.49841   0.33048 
C          C       0.50159   0.88946   0.33048 
C          C       0.11054   0.61213   0.33048 
C          C       0.63894   0.50103   0.32680 
C          C       0.49897   0.13791   0.32680 
C          C       0.86209   0.36106   0.32680 
C          C       0.36106   0.49897   0.32680 
C          C       0.50103   0.86209   0.32680 
C          C       0.13791   0.63894   0.32680 
C          C       0.66537   0.52569   0.26200 
C          C       0.47431   0.13968   0.26200 
C          C       0.86032   0.33463   0.26200 
C          C       0.33463   0.47431   0.26200 
C          C       0.52569   0.86032   0.26200 
C          C       0.13968   0.66537   0.26200 
C          C       0.66414   0.55068   0.19616 
C          C       0.44932   0.11346   0.19616 
C          C       0.88654   0.33586   0.19616 
C          C       0.33586   0.44932   0.19616 
C          C       0.55068   0.88654   0.19616 
C          C       0.11346   0.66414   0.19616 
C          C       0.63705   0.55077   0.19500 
C          C       0.44923   0.08628   0.19500 
C          C       0.91372   0.36295   0.19500 
C          C       0.36295   0.44923   0.19500 
C          C       0.55077   0.91372   0.19500 
C          C       0.08628   0.63705   0.19500 
C          C       0.55568   0.63789   0.36988 
C          C       0.36211   0.91779   0.36988 
C          C       0.08221   0.44432   0.36988 
C          C       0.44432   0.36211   0.36988 
C          C       0.63789   0.08221   0.36988 
C          C       0.91779   0.55568   0.36988 
C          C       0.55677   0.66555   0.36500 
C          C       0.33445   0.89122   0.36500 
C          C       0.10878   0.44323   0.36500 
C          C       0.44323   0.33445   0.36500 
C          C       0.66555   0.10878   0.36500 
C          C       0.89122   0.55677   0.36500 
C          C       0.53248   0.66782   0.29827 
C          C       0.33218   0.86466   0.29827 
C          C       0.13534   0.46752   0.29827 
C          C       0.46752   0.33218   0.29827 
C          C       0.66782   0.13534   0.29827 
C          C       0.86466   0.53248   0.29827 
C          C       0.50716   0.64173   0.23409 
C          C       0.35827   0.86543   0.23409 
C          C       0.13457   0.49284   0.23409 
C          C       0.49284   0.35827   0.23409 
C          C       0.64173   0.13457   0.23409 
C          C       0.86543   0.50716   0.23409 
C          C       0.50653   0.61431   0.23422 
C          C       0.38569   0.89222   0.23422 
C          C       0.10778   0.49347   0.23422 
C          C       0.49347   0.38569   0.23422 
C          C       0.61431   0.10778   0.23422 
C          C       0.89222   0.50653   0.23422 
N          N       0.69025   0.52340   0.26729 
N          N       0.47660   0.16685   0.26729 
N          N       0.83315   0.30975   0.26729 
N          N       0.30975   0.47660   0.26729 
N          N       0.52340   0.83315   0.26729 
N          N       0.16685   0.69025   0.26729 
C          C       0.71923   0.54406   0.24232 
C          C       0.45594   0.17517   0.24232 
C          C       0.82483   0.28077   0.24232 
C          C       0.28077   0.45594   0.24232 
C          C       0.54406   0.82483   0.24232 
C          C       0.17517   0.71923   0.24232 
C          C       0.74183   0.53654   0.25021 
C          C       0.46346   0.20529   0.25021 
C          C       0.79471   0.25817   0.25021 
C          C       0.25817   0.46346   0.25021 
C          C       0.53654   0.79471   0.25021 
C          C       0.20529   0.74183   0.25021 
N          N       0.53534   0.69527   0.29753 
N          N       0.30473   0.84007   0.29753 
N          N       0.15993   0.46466   0.29753 
N          N       0.46466   0.30473   0.29753 
N          N       0.69527   0.15993   0.29753 
N          N       0.84007   0.53534   0.29753 
C          C       0.51481   0.70369   0.26961 
C          C       0.29631   0.81112   0.26961 
C          C       0.18888   0.48519   0.26961 
C          C       0.48519   0.29631   0.26961 
C          C       0.70369   0.18888   0.26961 
C          C       0.81112   0.51481   0.26961 
C          C       0.77207   0.55929   0.25247 
C          C       0.44071   0.21278   0.25247 
C          C       0.78722   0.22793   0.25247 
C          C       0.22793   0.44071   0.25247 
C          C       0.55929   0.78722   0.25247 
C          C       0.21278   0.77207   0.25247 
C          C       0.79506   0.55239   0.26021 
C          C       0.44761   0.24267   0.26021 
C          C       0.75733   0.20494   0.26021 
C          C       0.20494   0.44761   0.26021 
C          C       0.55239   0.75733   0.26021 
C          C       0.24267   0.79506   0.26021 
C          C       0.78860   0.52245   0.26462 
C          C       0.47755   0.26615   0.26462 
C          C       0.73385   0.21140   0.26462 
C          C       0.21140   0.47755   0.26462 
C          C       0.52245   0.73385   0.26462 
C          C       0.26615   0.78860   0.26462 
C          C       0.75837   0.49971   0.26205 
C          C       0.50029   0.25866   0.26205 
C          C       0.74134   0.24163   0.26205 
C          C       0.24163   0.50029   0.26205 
C          C       0.49971   0.74134   0.26205 
C          C       0.25866   0.75837   0.26205 
C          C       0.73539   0.50661   0.25552 
C          C       0.49339   0.22878   0.25552 
C          C       0.77122   0.26461   0.25552 
C          C       0.26461   0.49339   0.25552 
C          C       0.50661   0.77122   0.25552 
C          C       0.22878   0.73539   0.25552 
H          H       0.48397   0.55705   0.33776 
H          H       0.44295   0.92692   0.33776 
H          H       0.07308   0.51603   0.33776 
H          H       0.51603   0.44295   0.33776 
H          H       0.55705   0.07308   0.33776 
H          H       0.92692   0.48397   0.33776 
H          H       0.57626   0.60068   0.27521 
H          H       0.39932   0.97558   0.27521 
H          H       0.02442   0.42374   0.27521 
H          H       0.42374   0.39932   0.27521 
H          H       0.60068   0.02442   0.27521 
H          H       0.97558   0.57626   0.27521 
H          H       0.60176   0.57341   0.29451 
H          H       0.42659   0.02835   0.29451 
H          H       0.97165   0.39824   0.29451 
H          H       0.39824   0.42659   0.29451 
H          H       0.57341   0.97165   0.29451 
H          H       0.02835   0.60176   0.29451 
H          H       0.55499   0.48107   0.23222 
H          H       0.51893   0.07392   0.23222 
H          H       0.92608   0.44501   0.23222 
H          H       0.44501   0.51893   0.23222 
H          H       0.48107   0.92608   0.23222 
H          H       0.07392   0.55499   0.23222 
H          H       0.59401   0.48345   0.38590 
H          H       0.51655   0.11056   0.38590 
H          H       0.88944   0.40599   0.38590 
H          H       0.40599   0.51655   0.38590 
H          H       0.48345   0.88944   0.38590 
H          H       0.11056   0.59401   0.38590 
H          H       0.63910   0.48251   0.37461 
H          H       0.51749   0.15659   0.37461 
H          H       0.84341   0.36090   0.37461 
H          H       0.36090   0.51749   0.37461 
H          H       0.48251   0.84341   0.37461 
H          H       0.15659   0.63910   0.37461 
H          H       0.68277   0.56888   0.14611 
H          H       0.43112   0.11389   0.14611 
H          H       0.88611   0.31723   0.14611 
H          H       0.31723   0.43112   0.14611 
H          H       0.56888   0.88611   0.14611 
H          H       0.11389   0.68277   0.14611 
H          H       0.63735   0.56909   0.14036 
H          H       0.43091   0.06826   0.14036 
H          H       0.93174   0.36265   0.14036 
H          H       0.36265   0.43091   0.14036 
H          H       0.56909   0.93174   0.14036 
H          H       0.06826   0.63735   0.14036 
H          H       0.57362   0.63754   0.42546 
H          H       0.36246   0.93608   0.42546 
H          H       0.06392   0.42638   0.42546 
H          H       0.42638   0.36246   0.42546 
H          H       0.63754   0.06392   0.42546 
H          H       0.93608   0.57362   0.42546 
H          H       0.57545   0.68408   0.41248 
H          H       0.31592   0.89137   0.41248 
H          H       0.10863   0.42455   0.41248 
H          H       0.42455   0.31592   0.41248 
H          H       0.68408   0.10863   0.41248 
H          H       0.89137   0.57545   0.41248 
H          H       0.48913   0.64241   0.18327 
H          H       0.35759   0.84672   0.18327 
H          H       0.15328   0.51087   0.18327 
H          H       0.51087   0.35759   0.18327 
H          H       0.64241   0.15328   0.18327 
H          H       0.84672   0.48913   0.18327 
H          H       0.48803   0.59647   0.17961 
H          H       0.40353   0.89156   0.17961 
H          H       0.10844   0.51197   0.17961 
H          H       0.51197   0.40353   0.17961 
H          H       0.59647   0.10844   0.17961 
H          H       0.89156   0.48803   0.17961 
H          H       0.72497   0.56575   0.21943 
H          H       0.43425   0.15922   0.21943 
H          H       0.84078   0.27503   0.21943 
H          H       0.27503   0.43425   0.21943 
H          H       0.56575   0.84078   0.21943 
H          H       0.15922   0.72497   0.21943 
H          H       0.49297   0.68770   0.25268 
H          H       0.31230   0.80527   0.25268 
H          H       0.19473   0.50703   0.25268 
H          H       0.50703   0.31230   0.25268 
H          H       0.68770   0.19473   0.25268 
H          H       0.80527   0.49297   0.25268 
H          H       0.77771   0.58123   0.24880 
H          H       0.41877   0.19648   0.24880 
H          H       0.80352   0.22229   0.24880 
H          H       0.22229   0.41877   0.24880 
H          H       0.58123   0.80352   0.24880 
H          H       0.19648   0.77771   0.24880 
H          H       0.81660   0.56957   0.26164 
H          H       0.43043   0.24703   0.26164 
H          H       0.75297   0.18340   0.26164 
H          H       0.18340   0.43043   0.26164 
H          H       0.56957   0.75297   0.26164 
H          H       0.24703   0.81660   0.26164 
H          H       0.75271   0.47776   0.26508 
H          H       0.52224   0.27495   0.26508 
H          H       0.72505   0.24729   0.26508 
H          H       0.24729   0.52224   0.26508 
H          H       0.47776   0.72505   0.26508 
H          H       0.27495   0.75271   0.26508 
H          H       0.71386   0.48940   0.25393 
H          H       0.51060   0.22446   0.25393 
H          H       0.77554   0.28614   0.25393 
H          H       0.28614   0.51060   0.25393 
H          H       0.48940   0.77554   0.25393 
H          H       0.22446   0.71386   0.25393 
C          C       0.47301   0.00061   0.78535 
C          C       0.99939   0.47240   0.78535 
C          C       0.52760   0.52699   0.78535 
C          C       0.52699   0.99939   0.78535 
C          C       0.00061   0.52760   0.78535 
C          C       0.47240   0.47301   0.78535 
C          C       0.47280   0.50065   0.77920 
C          C       0.49935   0.97215   0.77920 
C          C       0.02785   0.52720   0.77920 
C          C       0.52720   0.49935   0.77920 
C          C       0.50065   0.02785   0.77920 
C          C       0.97215   0.47280   0.77920 
C          C       0.50058   0.52782   0.79146 
C          C       0.47218   0.97276   0.79146 
C          C       0.02724   0.49942   0.79146 
C          C       0.49942   0.47218   0.79146 
C          C       0.52782   0.02724   0.79146 
C          C       0.97276   0.50058   0.79146 
C          C       0.50273   0.55610   0.81157 
C          C       0.44390   0.94663   0.81157 
C          C       0.05337   0.49727   0.81157 
C          C       0.49727   0.44390   0.81157 
C          C       0.55610   0.05337   0.81157 
C          C       0.94663   0.50273   0.81157 
C          C       0.52986   0.58350   0.80095 
C          C       0.41650   0.94636   0.80095 
C          C       0.05364   0.47014   0.80095 
C          C       0.47014   0.41650   0.80095 
C          C       0.58350   0.05364   0.80095 
C          C       0.94636   0.52986   0.80095 
C          C       0.55604   0.58164   0.78642 
C          C       0.41836   0.97440   0.78642 
C          C       0.02560   0.44396   0.78642 
C          C       0.44396   0.41836   0.78642 
C          C       0.58164   0.02560   0.78642 
C          C       0.97440   0.55604   0.78642 
C          C       0.55532   0.55410   0.78520 
C          C       0.44590   0.00122   0.78520 
C          C       0.99878   0.44468   0.78520 
C          C       0.44468   0.44590   0.78520 
C          C       0.55410   0.99878   0.78520 
C          C       0.00122   0.55532   0.78520 
C          C       0.58225   0.55361   0.78347 
C          C       0.44639   0.02864   0.78347 
C          C       0.97136   0.41775   0.78347 
C          C       0.41775   0.44639   0.78347 
C          C       0.55361   0.97136   0.78347 
C          C       0.02864   0.58225   0.78347 
C          C       0.58290   0.52678   0.76814 
C          C       0.47322   0.05612   0.76814 
C          C       0.94388   0.41710   0.76814 
C          C       0.41710   0.47322   0.76814 
C          C       0.52678   0.94388   0.76814 
C          C       0.05612   0.58290   0.76814 
C          C       0.55492   0.50028   0.75848 
C          C       0.49972   0.05464   0.75848 
C          C       0.94536   0.44508   0.75848 
C          C       0.44508   0.49972   0.75848 
C          C       0.50028   0.94536   0.75848 
C          C       0.05464   0.55492   0.75848 
C          C       0.53068   0.61143   0.80272 
C          C       0.38857   0.91925   0.80272 
C          C       0.08075   0.46932   0.80272 
C          C       0.46932   0.38857   0.80272 
C          C       0.61143   0.08075   0.80272 
C          C       0.91925   0.53068   0.80272 
C          C       0.38976   0.47360   0.76389 
C          C       0.52640   0.91616   0.76389 
C          C       0.08384   0.61024   0.76389 
C          C       0.61024   0.52640   0.76389 
C          C       0.47360   0.08384   0.76389 
C          C       0.91616   0.38976   0.76389 
C          C       0.61213   0.50159   0.83048 
C          C       0.49841   0.11054   0.83048 
C          C       0.88946   0.38787   0.83048 
C          C       0.38787   0.49841   0.83048 
C          C       0.50159   0.88946   0.83048 
C          C       0.11054   0.61213   0.83048 
C          C       0.63894   0.50103   0.82680 
C          C       0.49897   0.13791   0.82680 
C          C       0.86209   0.36106   0.82680 
C          C       0.36106   0.49897   0.82680 
C          C       0.50103   0.86209   0.82680 
C          C       0.13791   0.63894   0.82680 
C          C       0.66537   0.52569   0.76201 
C          C       0.47431   0.13968   0.76201 
C          C       0.86032   0.33463   0.76201 
C          C       0.33463   0.47431   0.76201 
C          C       0.52569   0.86032   0.76201 
C          C       0.13968   0.66537   0.76201 
C          C       0.66414   0.55068   0.69616 
C          C       0.44932   0.11346   0.69616 
C          C       0.88654   0.33586   0.69616 
C          C       0.33586   0.44932   0.69616 
C          C       0.55068   0.88654   0.69616 
C          C       0.11346   0.66414   0.69616 
C          C       0.63705   0.55077   0.69500 
C          C       0.44923   0.08628   0.69500 
C          C       0.91372   0.36295   0.69500 
C          C       0.36295   0.44923   0.69500 
C          C       0.55077   0.91372   0.69500 
C          C       0.08628   0.63705   0.69500 
C          C       0.55568   0.63789   0.86988 
C          C       0.36211   0.91779   0.86988 
C          C       0.08221   0.44432   0.86988 
C          C       0.44432   0.36211   0.86988 
C          C       0.63789   0.08221   0.86988 
C          C       0.91779   0.55568   0.86988 
C          C       0.55677   0.66555   0.86499 
C          C       0.33445   0.89122   0.86499 
C          C       0.10878   0.44323   0.86499 
C          C       0.44323   0.33445   0.86499 
C          C       0.66555   0.10878   0.86499 
C          C       0.89122   0.55677   0.86499 
C          C       0.53248   0.66782   0.79827 
C          C       0.33218   0.86466   0.79827 
C          C       0.13534   0.46752   0.79827 
C          C       0.46752   0.33218   0.79827 
C          C       0.66782   0.13534   0.79827 
C          C       0.86466   0.53248   0.79827 
C          C       0.50716   0.64173   0.73409 
C          C       0.35827   0.86543   0.73409 
C          C       0.13457   0.49284   0.73409 
C          C       0.49284   0.35827   0.73409 
C          C       0.64173   0.13457   0.73409 
C          C       0.86543   0.50716   0.73409 
C          C       0.50653   0.61431   0.73421 
C          C       0.38569   0.89222   0.73421 
C          C       0.10778   0.49347   0.73421 
C          C       0.49347   0.38569   0.73421 
C          C       0.61431   0.10778   0.73421 
C          C       0.89222   0.50653   0.73421 
N          N       0.69025   0.52340   0.76729 
N          N       0.47660   0.16685   0.76729 
N          N       0.83315   0.30975   0.76729 
N          N       0.30975   0.47660   0.76729 
N          N       0.52340   0.83315   0.76729 
N          N       0.16685   0.69025   0.76729 
C          C       0.71923   0.54406   0.74232 
C          C       0.45594   0.17517   0.74232 
C          C       0.82483   0.28077   0.74232 
C          C       0.28077   0.45594   0.74232 
C          C       0.54406   0.82483   0.74232 
C          C       0.17517   0.71923   0.74232 
C          C       0.74183   0.53654   0.75021 
C          C       0.46346   0.20529   0.75021 
C          C       0.79471   0.25817   0.75021 
C          C       0.25817   0.46346   0.75021 
C          C       0.53654   0.79471   0.75021 
C          C       0.20529   0.74183   0.75021 
N          N       0.53534   0.69527   0.79753 
N          N       0.30473   0.84007   0.79753 
N          N       0.15993   0.46466   0.79753 
N          N       0.46466   0.30473   0.79753 
N          N       0.69527   0.15993   0.79753 
N          N       0.84007   0.53534   0.79753 
C          C       0.51481   0.70369   0.76961 
C          C       0.29631   0.81112   0.76961 
C          C       0.18888   0.48519   0.76961 
C          C       0.48519   0.29631   0.76961 
C          C       0.70369   0.18888   0.76961 
C          C       0.81112   0.51481   0.76961 
C          C       0.77207   0.55929   0.75247 
C          C       0.44071   0.21278   0.75247 
C          C       0.78722   0.22793   0.75247 
C          C       0.22793   0.44071   0.75247 
C          C       0.55929   0.78722   0.75247 
C          C       0.21278   0.77207   0.75247 
C          C       0.79506   0.55239   0.76021 
C          C       0.44761   0.24267   0.76021 
C          C       0.75733   0.20494   0.76021 
C          C       0.20494   0.44761   0.76021 
C          C       0.55239   0.75733   0.76021 
C          C       0.24267   0.79506   0.76021 
C          C       0.78860   0.52245   0.76462 
C          C       0.47755   0.26615   0.76462 
C          C       0.73385   0.21140   0.76462 
C          C       0.21140   0.47755   0.76462 
C          C       0.52245   0.73385   0.76462 
C          C       0.26615   0.78860   0.76462 
C          C       0.75837   0.49971   0.76206 
C          C       0.50029   0.25866   0.76206 
C          C       0.74134   0.24163   0.76206 
C          C       0.24163   0.50029   0.76206 
C          C       0.49971   0.74134   0.76206 
C          C       0.25866   0.75837   0.76206 
C          C       0.73539   0.50661   0.75552 
C          C       0.49339   0.22878   0.75552 
C          C       0.77122   0.26461   0.75552 
C          C       0.26461   0.49339   0.75552 
C          C       0.50661   0.77122   0.75552 
C          C       0.22878   0.73539   0.75552 
H          H       0.48397   0.55705   0.83776 
H          H       0.44295   0.92692   0.83776 
H          H       0.07308   0.51603   0.83776 
H          H       0.51603   0.44295   0.83776 
H          H       0.55705   0.07308   0.83776 
H          H       0.92692   0.48397   0.83776 
H          H       0.57626   0.60068   0.77522 
H          H       0.39932   0.97558   0.77522 
H          H       0.02442   0.42374   0.77522 
H          H       0.42374   0.39932   0.77522 
H          H       0.60068   0.02442   0.77522 
H          H       0.97558   0.57626   0.77522 
H          H       0.60176   0.57341   0.79451 
H          H       0.42659   0.02835   0.79451 
H          H       0.97165   0.39824   0.79451 
H          H       0.39824   0.42659   0.79451 
H          H       0.57341   0.97165   0.79451 
H          H       0.02835   0.60176   0.79451 
H          H       0.55499   0.48107   0.73222 
H          H       0.51893   0.07392   0.73222 
H          H       0.92608   0.44501   0.73222 
H          H       0.44501   0.51893   0.73222 
H          H       0.48107   0.92608   0.73222 
H          H       0.07392   0.55499   0.73222 
H          H       0.59401   0.48345   0.88590 
H          H       0.51655   0.11056   0.88590 
H          H       0.88944   0.40599   0.88590 
H          H       0.40599   0.51655   0.88590 
H          H       0.48345   0.88944   0.88590 
H          H       0.11056   0.59401   0.88590 
H          H       0.63910   0.48251   0.87462 
H          H       0.51749   0.15659   0.87462 
H          H       0.84341   0.36090   0.87462 
H          H       0.36090   0.51749   0.87462 
H          H       0.48251   0.84341   0.87462 
H          H       0.15659   0.63910   0.87462 
H          H       0.68277   0.56888   0.64611 
H          H       0.43112   0.11389   0.64611 
H          H       0.88611   0.31723   0.64611 
H          H       0.31723   0.43112   0.64611 
H          H       0.56888   0.88611   0.64611 
H          H       0.11389   0.68277   0.64611 
H          H       0.63735   0.56909   0.64036 
H          H       0.43091   0.06826   0.64036 
H          H       0.93174   0.36265   0.64036 
H          H       0.36265   0.43091   0.64036 
H          H       0.56909   0.93174   0.64036 
H          H       0.06826   0.63735   0.64036 
H          H       0.57362   0.63754   0.92546 
H          H       0.36246   0.93608   0.92546 
H          H       0.06392   0.42638   0.92546 
H          H       0.42638   0.36246   0.92546 
H          H       0.63754   0.06392   0.92546 
H          H       0.93608   0.57362   0.92546 
H          H       0.57545   0.68408   0.91248 
H          H       0.31592   0.89137   0.91248 
H          H       0.10863   0.42455   0.91248 
H          H       0.42455   0.31592   0.91248 
H          H       0.68408   0.10863   0.91248 
H          H       0.89137   0.57545   0.91248 
H          H       0.48913   0.64241   0.68328 
H          H       0.35759   0.84672   0.68328 
H          H       0.15328   0.51087   0.68328 
H          H       0.51087   0.35759   0.68328 
H          H       0.64241   0.15328   0.68328 
H          H       0.84672   0.48913   0.68328 
H          H       0.48803   0.59647   0.67961 
H          H       0.40353   0.89156   0.67961 
H          H       0.10844   0.51197   0.67961 
H          H       0.51197   0.40353   0.67961 
H          H       0.59647   0.10844   0.67961 
H          H       0.89156   0.48803   0.67961 
H          H       0.72497   0.56575   0.71943 
H          H       0.43425   0.15922   0.71943 
H          H       0.84078   0.27503   0.71943 
H          H       0.27503   0.43425   0.71943 
H          H       0.56575   0.84078   0.71943 
H          H       0.15922   0.72497   0.71943 
H          H       0.49297   0.68770   0.75269 
H          H       0.31230   0.80527   0.75269 
H          H       0.19473   0.50703   0.75269 
H          H       0.50703   0.31230   0.75269 
H          H       0.68770   0.19473   0.75269 
H          H       0.80527   0.49297   0.75269 
H          H       0.77771   0.58123   0.74880 
H          H       0.41877   0.19648   0.74880 
H          H       0.80352   0.22229   0.74880 
H          H       0.22229   0.41877   0.74880 
H          H       0.58123   0.80352   0.74880 
H          H       0.19648   0.77771   0.74880 
H          H       0.81660   0.56957   0.76164 
H          H       0.43043   0.24703   0.76164 
H          H       0.75297   0.18340   0.76164 
H          H       0.18340   0.43043   0.76164 
H          H       0.56957   0.75297   0.76164 
H          H       0.24703   0.81660   0.76164 
H          H       0.75271   0.47776   0.76508 
H          H       0.52224   0.27495   0.76508 
H          H       0.72505   0.24729   0.76508 
H          H       0.24729   0.52224   0.76508 
H          H       0.47776   0.72505   0.76508 
H          H       0.27495   0.75271   0.76508 
H          H       0.71386   0.48940   0.75393 
H          H       0.51060   0.22446   0.75393 
H          H       0.77554   0.28614   0.75393 
H          H       0.28614   0.51060   0.75393 
H          H       0.48940   0.77554   0.75393 
H          H       0.22446   0.71386   0.75393 
