data_crystal
 
_cell_length_a    53.65850
_cell_length_b    53.65850
_cell_length_c    6.98000
_cell_angle_alpha 90.00000
_cell_angle_beta  90.00000
_cell_angle_gamma 120.00000
 
_space_group_name_Hall 'P 1'
_space_group_name_H-M_alt  'P 1'
 
loop_
_symmetry_equiv_pos_as_xyz
 'x,y,z' 
 
loop_
_atom_site_label
_atom_site_type_symbol
_atom_site_fract_x
_atom_site_fract_y
_atom_site_fract_z
C          C       0.47396   0.99882   0.27887 
C          C       0.00118   0.47514   0.27887 
C          C       0.52486   0.52604   0.27887 
C          C       0.52604   0.00118   0.27887 
C          C       0.99882   0.52486   0.27887 
C          C       0.47514   0.47396   0.27887 
C          C       0.47376   0.49884   0.27241 
C          C       0.50116   0.97492   0.27241 
C          C       0.02508   0.52624   0.27241 
C          C       0.52624   0.50116   0.27241 
C          C       0.49884   0.02508   0.27241 
C          C       0.97492   0.47376   0.27241 
C          C       0.49878   0.52505   0.28542 
C          C       0.47495   0.97373   0.28542 
C          C       0.02627   0.50122   0.28542 
C          C       0.50122   0.47495   0.28542 
C          C       0.52505   0.02627   0.28542 
C          C       0.97373   0.49878   0.28542 
C          C       0.44713   0.49625   0.25055 
C          C       0.50375   0.95088   0.25055 
C          C       0.04912   0.55287   0.25055 
C          C       0.55287   0.50375   0.25055 
C          C       0.49625   0.04912   0.25055 
C          C       0.95088   0.44713   0.25055 
C          C       0.42185   0.47061   0.25937 
C          C       0.52939   0.95124   0.25937 
C          C       0.04876   0.57815   0.25937 
C          C       0.57815   0.52939   0.25937 
C          C       0.47061   0.04876   0.25937 
C          C       0.95124   0.42185   0.25937 
C          C       0.42418   0.44652   0.27564 
C          C       0.55348   0.97766   0.27564 
C          C       0.02234   0.57582   0.27564 
C          C       0.57582   0.55348   0.27564 
C          C       0.44652   0.02234   0.27564 
C          C       0.97766   0.42418   0.27564 
C          C       0.45017   0.44780   0.27861 
C          C       0.55220   0.00237   0.27861 
C          C       0.99763   0.54983   0.27861 
C          C       0.54983   0.55220   0.27861 
C          C       0.44780   0.99763   0.27861 
C          C       0.00237   0.45017   0.27861 
C          C       0.45124   0.42299   0.28101 
C          C       0.57701   0.02825   0.28101 
C          C       0.97175   0.54876   0.28101 
C          C       0.54876   0.57701   0.28101 
C          C       0.42299   0.97175   0.28101 
C          C       0.02825   0.45124   0.28101 
C          C       0.47659   0.42299   0.29683 
C          C       0.57701   0.05360   0.29683 
C          C       0.94640   0.52341   0.29683 
C          C       0.52341   0.57701   0.29683 
C          C       0.42299   0.94640   0.29683 
C          C       0.05360   0.47659   0.29683 
C          C       0.50098   0.44939   0.30677 
C          C       0.55061   0.05159   0.30677 
C          C       0.94841   0.49902   0.30677 
C          C       0.49902   0.55061   0.30677 
C          C       0.44939   0.94841   0.30677 
C          C       0.05159   0.50098   0.30677 
C          C       0.52243   0.60220   0.30055 
C          C       0.39780   0.92023   0.30055 
C          C       0.07977   0.47757   0.30055 
C          C       0.47757   0.39780   0.30055 
C          C       0.60220   0.07977   0.30055 
C          C       0.92023   0.52243   0.30055 
C          C       0.39548   0.46920   0.25339 
C          C       0.53080   0.92628   0.25339 
C          C       0.07372   0.60452   0.25339 
C          C       0.60452   0.53080   0.25339 
C          C       0.46920   0.07372   0.25339 
C          C       0.92628   0.39548   0.25339 
C          C       0.62871   0.55447   0.18363 
C          C       0.44553   0.07424   0.18363 
C          C       0.92576   0.37129   0.18363 
C          C       0.37129   0.44553   0.18363 
C          C       0.55447   0.92576   0.18363 
C          C       0.07424   0.62871   0.18363 
C          C       0.65483   0.55614   0.18305 
C          C       0.44386   0.09869   0.18305 
C          C       0.90131   0.34517   0.18305 
C          C       0.34517   0.44386   0.18305 
C          C       0.55614   0.90131   0.18305 
C          C       0.09869   0.65483   0.18305 
C          C       0.65771   0.53374   0.24801 
C          C       0.46626   0.12397   0.24801 
C          C       0.87603   0.34229   0.24801 
C          C       0.34229   0.46626   0.24801 
C          C       0.53374   0.87603   0.24801 
C          C       0.12397   0.65771   0.24801 
C          C       0.63390   0.50985   0.31375 
C          C       0.49015   0.12405   0.31375 
C          C       0.87595   0.36610   0.31375 
C          C       0.36610   0.49015   0.31375 
C          C       0.50985   0.87595   0.31375 
C          C       0.12405   0.63390   0.31375 
C          C       0.60802   0.50861   0.31905 
C          C       0.49139   0.09941   0.31905 
C          C       0.90059   0.39198   0.31905 
C          C       0.39198   0.49139   0.31905 
C          C       0.50861   0.90059   0.31905 
C          C       0.09941   0.60802   0.31905 
C          C       0.49892   0.60332   0.23395 
C          C       0.39668   0.89560   0.23395 
C          C       0.10440   0.50108   0.23395 
C          C       0.50108   0.39668   0.23395 
C          C       0.60332   0.10440   0.23395 
C          C       0.89560   0.49892   0.23395 
C          C       0.49780   0.62804   0.23588 
C          C       0.37196   0.86976   0.23588 
C          C       0.13024   0.50220   0.23588 
C          C       0.50220   0.37196   0.23588 
C          C       0.62804   0.13024   0.23588 
C          C       0.86976   0.49780   0.23588 
C          C       0.52061   0.65307   0.30017 
C          C       0.34693   0.86754   0.30017 
C          C       0.13246   0.47939   0.30017 
C          C       0.47939   0.34693   0.30017 
C          C       0.65307   0.13246   0.30017 
C          C       0.86754   0.52061   0.30017 
C          C       0.54423   0.65251   0.36492 
C          C       0.34749   0.89172   0.36492 
C          C       0.10828   0.45577   0.36492 
C          C       0.45577   0.34749   0.36492 
C          C       0.65251   0.10828   0.36492 
C          C       0.89172   0.54423   0.36492 
C          C       0.54491   0.62755   0.36793 
C          C       0.37245   0.91736   0.36793 
C          C       0.08264   0.45509   0.36793 
C          C       0.45509   0.37245   0.36793 
C          C       0.62755   0.08264   0.36793 
C          C       0.91736   0.54491   0.36793 
N          N       0.68184   0.53328   0.25196 
N          N       0.46672   0.14856   0.25196 
N          N       0.85144   0.31816   0.25196 
N          N       0.31816   0.46672   0.25196 
N          N       0.53328   0.85144   0.25196 
N          N       0.14856   0.68184   0.25196 
C          C       0.70836   0.55348   0.22058 
C          C       0.44652   0.15488   0.22058 
C          C       0.84512   0.29164   0.22058 
C          C       0.29164   0.44652   0.22058 
C          C       0.55348   0.84512   0.22058 
C          C       0.15488   0.70836   0.22058 
C          C       0.73064   0.54819   0.23000 
C          C       0.45181   0.18245   0.23000 
C          C       0.81755   0.26936   0.23000 
C          C       0.26936   0.45181   0.23000 
C          C       0.54819   0.81755   0.23000 
C          C       0.18245   0.73064   0.23000 
N          N       0.52163   0.67795   0.30103 
N          N       0.32205   0.84368   0.30103 
N          N       0.15632   0.47837   0.30103 
N          N       0.47837   0.32205   0.30103 
N          N       0.67795   0.15632   0.30103 
N          N       0.84368   0.52163   0.30103 
C          C       0.50117   0.68416   0.27897 
C          C       0.31584   0.81701   0.27897 
C          C       0.18299   0.49883   0.27897 
C          C       0.49883   0.31584   0.27897 
C          C       0.68416   0.18299   0.27897 
C          C       0.81701   0.50117   0.27897 
C          C       0.75828   0.57057   0.22046 
C          C       0.42943   0.18771   0.22046 
C          C       0.81229   0.24172   0.22046 
C          C       0.24172   0.42943   0.22046 
C          C       0.57057   0.81229   0.22046 
C          C       0.18771   0.75828   0.22046 
C          C       0.78094   0.56600   0.23019 
C          C       0.43400   0.21494   0.23019 
C          C       0.78506   0.21906   0.23019 
C          C       0.21906   0.43400   0.23019 
C          C       0.56600   0.78506   0.23019 
C          C       0.21494   0.78094   0.23019 
C          C       0.77657   0.53882   0.24865 
C          C       0.46118   0.23775   0.24865 
C          C       0.76225   0.22343   0.24865 
C          C       0.22343   0.46118   0.24865 
C          C       0.53882   0.76225   0.24865 
C          C       0.23775   0.77657   0.24865 
C          C       0.74894   0.51605   0.25733 
C          C       0.48395   0.23289   0.25733 
C          C       0.76711   0.25106   0.25733 
C          C       0.25106   0.48395   0.25733 
C          C       0.51605   0.76711   0.25733 
C          C       0.23289   0.74894   0.25733 
C          C       0.72635   0.52094   0.24863 
C          C       0.47906   0.20541   0.24863 
C          C       0.79459   0.27365   0.24863 
C          C       0.27365   0.47906   0.24863 
C          C       0.52094   0.79459   0.24863 
C          C       0.20541   0.72635   0.24863 
C          C       0.74453   0.48883   0.27384 
C          C       0.51117   0.25570   0.27384 
C          C       0.74430   0.25547   0.27384 
C          C       0.25547   0.51117   0.27384 
C          C       0.48883   0.74430   0.27384 
C          C       0.25570   0.74453   0.27384 
C          C       0.76716   0.48421   0.28104 
C          C       0.51579   0.28295   0.28104 
C          C       0.71705   0.23284   0.28104 
C          C       0.23284   0.51579   0.28104 
C          C       0.48421   0.71705   0.28104 
C          C       0.28295   0.76716   0.28104 
C          C       0.79481   0.50660   0.27330 
C          C       0.49340   0.28821   0.27330 
C          C       0.71179   0.20519   0.27330 
C          C       0.20519   0.49340   0.27330 
C          C       0.50660   0.71179   0.27330 
C          C       0.28821   0.79481   0.27330 
C          C       0.79916   0.53390   0.25772 
C          C       0.46610   0.26526   0.25772 
C          C       0.73474   0.20084   0.25772 
C          C       0.20084   0.46610   0.25772 
C          C       0.53390   0.73474   0.25772 
C          C       0.26526   0.79916   0.25772 
H          H       0.44587   0.51355   0.22395 
H          H       0.48645   0.93232   0.22395 
H          H       0.06768   0.55413   0.22395 
H          H       0.55413   0.48645   0.22395 
H          H       0.51355   0.06768   0.22395 
H          H       0.93232   0.44587   0.22395 
H          H       0.40665   0.42746   0.28647 
H          H       0.57254   0.97919   0.28647 
H          H       0.02081   0.59335   0.28647 
H          H       0.59335   0.57254   0.28647 
H          H       0.42746   0.02081   0.28647 
H          H       0.97919   0.40665   0.28647 
H          H       0.43298   0.40456   0.26976 
H          H       0.59544   0.02842   0.26976 
H          H       0.97158   0.56702   0.26976 
H          H       0.56702   0.59544   0.26976 
H          H       0.40456   0.97158   0.26976 
H          H       0.02842   0.43298   0.26976 
H          H       0.51913   0.44979   0.33354 
H          H       0.55021   0.06934   0.33354 
H          H       0.93066   0.48087   0.33354 
H          H       0.48087   0.55021   0.33354 
H          H       0.44979   0.93066   0.33354 
H          H       0.06934   0.51913   0.33354 
H          H       0.62776   0.57098   0.12959 
H          H       0.42902   0.05678   0.12959 
H          H       0.94322   0.37224   0.12959 
H          H       0.37224   0.42902   0.12959 
H          H       0.57098   0.94322   0.12959 
H          H       0.05678   0.62776   0.12959 
H          H       0.67155   0.57374   0.13258 
H          H       0.42626   0.09781   0.13258 
H          H       0.90219   0.32845   0.13258 
H          H       0.32845   0.42626   0.13258 
H          H       0.57374   0.90219   0.13258 
H          H       0.09781   0.67155   0.13258 
H          H       0.63530   0.49321   0.36104 
H          H       0.50679   0.14209   0.36104 
H          H       0.85791   0.36470   0.36104 
H          H       0.36470   0.50679   0.36104 
H          H       0.49321   0.85791   0.36104 
H          H       0.14209   0.63530   0.36104 
H          H       0.59179   0.49112   0.37501 
H          H       0.50888   0.10067   0.37501 
H          H       0.89933   0.40821   0.37501 
H          H       0.40821   0.50888   0.37501 
H          H       0.49112   0.89933   0.37501 
H          H       0.10067   0.59179   0.37501 
H          H       0.48216   0.58615   0.17925 
H          H       0.41385   0.89601   0.17925 
H          H       0.10399   0.51784   0.17925 
H          H       0.51784   0.41385   0.17925 
H          H       0.58615   0.10399   0.17925 
H          H       0.89601   0.48216   0.17925 
H          H       0.48034   0.62757   0.18635 
H          H       0.37243   0.85277   0.18635 
H          H       0.14723   0.51966   0.18635 
H          H       0.51966   0.37243   0.18635 
H          H       0.62757   0.14723   0.18635 
H          H       0.85277   0.48034   0.18635 
H          H       0.56111   0.67034   0.41237 
H          H       0.32966   0.89077   0.41237 
H          H       0.10923   0.43889   0.41237 
H          H       0.43889   0.32966   0.41237 
H          H       0.67034   0.10923   0.41237 
H          H       0.89077   0.56111   0.41237 
H          H       0.56227   0.62833   0.42231 
H          H       0.37167   0.93394   0.42231 
H          H       0.06606   0.43773   0.42231 
H          H       0.43773   0.37167   0.42231 
H          H       0.62833   0.06606   0.42231 
H          H       0.93394   0.56227   0.42231 
H          H       0.71244   0.57318   0.19131 
H          H       0.42682   0.13926   0.19131 
H          H       0.86074   0.28756   0.19131 
H          H       0.28756   0.42682   0.19131 
H          H       0.57318   0.86074   0.19131 
H          H       0.13926   0.71244   0.19131 
H          H       0.48106   0.66834   0.26725 
H          H       0.33166   0.81272   0.26725 
H          H       0.18728   0.51894   0.26725 
H          H       0.51894   0.33166   0.26725 
H          H       0.66834   0.18728   0.26725 
H          H       0.81272   0.48106   0.26725 
H          H       0.76225   0.59057   0.20670 
H          H       0.40943   0.17168   0.20670 
H          H       0.82832   0.23775   0.20670 
H          H       0.23775   0.40943   0.20670 
H          H       0.59057   0.82832   0.20670 
H          H       0.17168   0.76225   0.20670 
H          H       0.80066   0.58271   0.22335 
H          H       0.41729   0.21795   0.22335 
H          H       0.78205   0.19934   0.22335 
H          H       0.19934   0.41729   0.22335 
H          H       0.58271   0.78205   0.22335 
H          H       0.21795   0.80066   0.22335 
H          H       0.70655   0.50435   0.25531 
H          H       0.49565   0.20220   0.25531 
H          H       0.79780   0.29345   0.25531 
H          H       0.29345   0.49565   0.25531 
H          H       0.50435   0.79780   0.25531 
H          H       0.20220   0.70655   0.25531 
H          H       0.72480   0.47212   0.28036 
H          H       0.52788   0.25268   0.28036 
H          H       0.74732   0.27520   0.28036 
H          H       0.27520   0.52788   0.28036 
H          H       0.47212   0.74732   0.28036 
H          H       0.25268   0.72480   0.28036 
H          H       0.76317   0.46417   0.29235 
H          H       0.53583   0.29900   0.29235 
H          H       0.70100   0.23683   0.29235 
H          H       0.23683   0.53583   0.29235 
H          H       0.46417   0.70100   0.29235 
H          H       0.29900   0.76317   0.29235 
H          H       0.81899   0.55046   0.25149 
H          H       0.44954   0.26853   0.25149 
H          H       0.73147   0.18101   0.25149 
H          H       0.18101   0.44954   0.25149 
H          H       0.55046   0.73147   0.25149 
H          H       0.26853   0.81899   0.25149 
C          C       0.47396   0.99882   0.77887 
C          C       0.00118   0.47514   0.77887 
C          C       0.52486   0.52604   0.77887 
C          C       0.52604   0.00118   0.77887 
C          C       0.99882   0.52486   0.77887 
C          C       0.47514   0.47396   0.77887 
C          C       0.47376   0.49884   0.77241 
C          C       0.50116   0.97492   0.77241 
C          C       0.02508   0.52624   0.77241 
C          C       0.52624   0.50116   0.77241 
C          C       0.49884   0.02508   0.77241 
C          C       0.97492   0.47376   0.77241 
C          C       0.49878   0.52505   0.78542 
C          C       0.47495   0.97373   0.78542 
C          C       0.02627   0.50122   0.78542 
C          C       0.50122   0.47495   0.78542 
C          C       0.52505   0.02627   0.78542 
C          C       0.97373   0.49878   0.78542 
C          C       0.44713   0.49625   0.75055 
C          C       0.50375   0.95088   0.75055 
C          C       0.04912   0.55287   0.75055 
C          C       0.55287   0.50375   0.75055 
C          C       0.49625   0.04912   0.75055 
C          C       0.95088   0.44713   0.75055 
C          C       0.42185   0.47061   0.75937 
C          C       0.52939   0.95124   0.75937 
C          C       0.04876   0.57815   0.75937 
C          C       0.57815   0.52939   0.75937 
C          C       0.47061   0.04876   0.75937 
C          C       0.95124   0.42185   0.75937 
C          C       0.42418   0.44652   0.77565 
C          C       0.55348   0.97766   0.77565 
C          C       0.02234   0.57582   0.77565 
C          C       0.57582   0.55348   0.77565 
C          C       0.44652   0.02234   0.77565 
C          C       0.97766   0.42418   0.77565 
C          C       0.45017   0.44780   0.77861 
C          C       0.55220   0.00237   0.77861 
C          C       0.99763   0.54983   0.77861 
C          C       0.54983   0.55220   0.77861 
C          C       0.44780   0.99763   0.77861 
C          C       0.00237   0.45017   0.77861 
C          C       0.45124   0.42299   0.78101 
C          C       0.57701   0.02825   0.78101 
C          C       0.97175   0.54876   0.78101 
C          C       0.54876   0.57701   0.78101 
C          C       0.42299   0.97175   0.78101 
C          C       0.02825   0.45124   0.78101 
C          C       0.47659   0.42299   0.79683 
C          C       0.57701   0.05360   0.79683 
C          C       0.94640   0.52341   0.79683 
C          C       0.52341   0.57701   0.79683 
C          C       0.42299   0.94640   0.79683 
C          C       0.05360   0.47659   0.79683 
C          C       0.50098   0.44939   0.80677 
C          C       0.55061   0.05159   0.80677 
C          C       0.94841   0.49902   0.80677 
C          C       0.49902   0.55061   0.80677 
C          C       0.44939   0.94841   0.80677 
C          C       0.05159   0.50098   0.80677 
C          C       0.52243   0.60220   0.80055 
C          C       0.39780   0.92023   0.80055 
C          C       0.07977   0.47757   0.80055 
C          C       0.47757   0.39780   0.80055 
C          C       0.60220   0.07977   0.80055 
C          C       0.92023   0.52243   0.80055 
C          C       0.39548   0.46920   0.75339 
C          C       0.53080   0.92628   0.75339 
C          C       0.07372   0.60452   0.75339 
C          C       0.60452   0.53080   0.75339 
C          C       0.46920   0.07372   0.75339 
C          C       0.92628   0.39548   0.75339 
C          C       0.62871   0.55447   0.68362 
C          C       0.44553   0.07424   0.68362 
C          C       0.92576   0.37129   0.68362 
C          C       0.37129   0.44553   0.68362 
C          C       0.55447   0.92576   0.68362 
C          C       0.07424   0.62871   0.68362 
C          C       0.65483   0.55614   0.68305 
C          C       0.44386   0.09869   0.68305 
C          C       0.90131   0.34517   0.68305 
C          C       0.34517   0.44386   0.68305 
C          C       0.55614   0.90131   0.68305 
C          C       0.09869   0.65483   0.68305 
C          C       0.65771   0.53374   0.74801 
C          C       0.46626   0.12397   0.74801 
C          C       0.87603   0.34229   0.74801 
C          C       0.34229   0.46626   0.74801 
C          C       0.53374   0.87603   0.74801 
C          C       0.12397   0.65771   0.74801 
C          C       0.63390   0.50985   0.81375 
C          C       0.49015   0.12405   0.81375 
C          C       0.87595   0.36610   0.81375 
C          C       0.36610   0.49015   0.81375 
C          C       0.50985   0.87595   0.81375 
C          C       0.12405   0.63390   0.81375 
C          C       0.60802   0.50861   0.81905 
C          C       0.49139   0.09941   0.81905 
C          C       0.90059   0.39198   0.81905 
C          C       0.39198   0.49139   0.81905 
C          C       0.50861   0.90059   0.81905 
C          C       0.09941   0.60802   0.81905 
C          C       0.49892   0.60332   0.73396 
C          C       0.39668   0.89560   0.73396 
C          C       0.10440   0.50108   0.73396 
C          C       0.50108   0.39668   0.73396 
C          C       0.60332   0.10440   0.73396 
C          C       0.89560   0.49892   0.73396 
C          C       0.49780   0.62804   0.73588 
C          C       0.37196   0.86976   0.73588 
C          C       0.13024   0.50220   0.73588 
C          C       0.50220   0.37196   0.73588 
C          C       0.62804   0.13024   0.73588 
C          C       0.86976   0.49780   0.73588 
C          C       0.52061   0.65307   0.80017 
C          C       0.34693   0.86754   0.80017 
C          C       0.13246   0.47939   0.80017 
C          C       0.47939   0.34693   0.80017 
C          C       0.65307   0.13246   0.80017 
C          C       0.86754   0.52061   0.80017 
C          C       0.54423   0.65251   0.86492 
C          C       0.34749   0.89172   0.86492 
C          C       0.10828   0.45577   0.86492 
C          C       0.45577   0.34749   0.86492 
C          C       0.65251   0.10828   0.86492 
C          C       0.89172   0.54423   0.86492 
C          C       0.54491   0.62755   0.86793 
C          C       0.37245   0.91736   0.86793 
C          C       0.08264   0.45509   0.86793 
C          C       0.45509   0.37245   0.86793 
C          C       0.62755   0.08264   0.86793 
C          C       0.91736   0.54491   0.86793 
N          N       0.68184   0.53328   0.75196 
N          N       0.46672   0.14856   0.75196 
N          N       0.85144   0.31816   0.75196 
N          N       0.31816   0.46672   0.75196 
N          N       0.53328   0.85144   0.75196 
N          N       0.14856   0.68184   0.75196 
C          C       0.70836   0.55348   0.72058 
C          C       0.44652   0.15488   0.72058 
C          C       0.84512   0.29164   0.72058 
C          C       0.29164   0.44652   0.72058 
C          C       0.55348   0.84512   0.72058 
C          C       0.15488   0.70836   0.72058 
C          C       0.73064   0.54819   0.73000 
C          C       0.45181   0.18245   0.73000 
C          C       0.81755   0.26936   0.73000 
C          C       0.26936   0.45181   0.73000 
C          C       0.54819   0.81755   0.73000 
C          C       0.18245   0.73064   0.73000 
N          N       0.52163   0.67795   0.80102 
N          N       0.32205   0.84368   0.80102 
N          N       0.15632   0.47837   0.80102 
N          N       0.47837   0.32205   0.80102 
N          N       0.67795   0.15632   0.80102 
N          N       0.84368   0.52163   0.80102 
C          C       0.50117   0.68416   0.77897 
C          C       0.31584   0.81701   0.77897 
C          C       0.18299   0.49883   0.77897 
C          C       0.49883   0.31584   0.77897 
C          C       0.68416   0.18299   0.77897 
C          C       0.81701   0.50117   0.77897 
C          C       0.75828   0.57057   0.72046 
C          C       0.42943   0.18771   0.72046 
C          C       0.81229   0.24172   0.72046 
C          C       0.24172   0.42943   0.72046 
C          C       0.57057   0.81229   0.72046 
C          C       0.18771   0.75828   0.72046 
C          C       0.78094   0.56600   0.73019 
C          C       0.43400   0.21494   0.73019 
C          C       0.78506   0.21906   0.73019 
C          C       0.21906   0.43400   0.73019 
C          C       0.56600   0.78506   0.73019 
C          C       0.21494   0.78094   0.73019 
C          C       0.77657   0.53882   0.74866 
C          C       0.46118   0.23775   0.74866 
C          C       0.76225   0.22343   0.74866 
C          C       0.22343   0.46118   0.74866 
C          C       0.53882   0.76225   0.74866 
C          C       0.23775   0.77657   0.74866 
C          C       0.74894   0.51605   0.75733 
C          C       0.48395   0.23289   0.75733 
C          C       0.76711   0.25106   0.75733 
C          C       0.25106   0.48395   0.75733 
C          C       0.51605   0.76711   0.75733 
C          C       0.23289   0.74894   0.75733 
C          C       0.72635   0.52094   0.74863 
C          C       0.47906   0.20541   0.74863 
C          C       0.79459   0.27365   0.74863 
C          C       0.27365   0.47906   0.74863 
C          C       0.52094   0.79459   0.74863 
C          C       0.20541   0.72635   0.74863 
C          C       0.74453   0.48883   0.77384 
C          C       0.51117   0.25570   0.77384 
C          C       0.74430   0.25547   0.77384 
C          C       0.25547   0.51117   0.77384 
C          C       0.48883   0.74430   0.77384 
C          C       0.25570   0.74453   0.77384 
C          C       0.76716   0.48421   0.78104 
C          C       0.51579   0.28295   0.78104 
C          C       0.71705   0.23284   0.78104 
C          C       0.23284   0.51579   0.78104 
C          C       0.48421   0.71705   0.78104 
C          C       0.28295   0.76716   0.78104 
C          C       0.79481   0.50660   0.77330 
C          C       0.49340   0.28821   0.77330 
C          C       0.71179   0.20519   0.77330 
C          C       0.20519   0.49340   0.77330 
C          C       0.50660   0.71179   0.77330 
C          C       0.28821   0.79481   0.77330 
C          C       0.79916   0.53390   0.75772 
C          C       0.46610   0.26526   0.75772 
C          C       0.73474   0.20084   0.75772 
C          C       0.20084   0.46610   0.75772 
C          C       0.53390   0.73474   0.75772 
C          C       0.26526   0.79916   0.75772 
H          H       0.44587   0.51355   0.72395 
H          H       0.48645   0.93232   0.72395 
H          H       0.06768   0.55413   0.72395 
H          H       0.55413   0.48645   0.72395 
H          H       0.51355   0.06768   0.72395 
H          H       0.93232   0.44587   0.72395 
H          H       0.40665   0.42746   0.78647 
H          H       0.57254   0.97919   0.78647 
H          H       0.02081   0.59335   0.78647 
H          H       0.59335   0.57254   0.78647 
H          H       0.42746   0.02081   0.78647 
H          H       0.97919   0.40665   0.78647 
H          H       0.43298   0.40456   0.76976 
H          H       0.59544   0.02842   0.76976 
H          H       0.97158   0.56702   0.76976 
H          H       0.56702   0.59544   0.76976 
H          H       0.40456   0.97158   0.76976 
H          H       0.02842   0.43298   0.76976 
H          H       0.51913   0.44979   0.83354 
H          H       0.55021   0.06934   0.83354 
H          H       0.93066   0.48087   0.83354 
H          H       0.48087   0.55021   0.83354 
H          H       0.44979   0.93066   0.83354 
H          H       0.06934   0.51913   0.83354 
H          H       0.62776   0.57098   0.62959 
H          H       0.42902   0.05678   0.62959 
H          H       0.94322   0.37224   0.62959 
H          H       0.37224   0.42902   0.62959 
H          H       0.57098   0.94322   0.62959 
H          H       0.05678   0.62776   0.62959 
H          H       0.67155   0.57374   0.63258 
H          H       0.42626   0.09781   0.63258 
H          H       0.90219   0.32845   0.63258 
H          H       0.32845   0.42626   0.63258 
H          H       0.57374   0.90219   0.63258 
H          H       0.09781   0.67155   0.63258 
H          H       0.63530   0.49321   0.86104 
H          H       0.50679   0.14209   0.86104 
H          H       0.85791   0.36470   0.86104 
H          H       0.36470   0.50679   0.86104 
H          H       0.49321   0.85791   0.86104 
H          H       0.14209   0.63530   0.86104 
H          H       0.59179   0.49112   0.87501 
H          H       0.50888   0.10067   0.87501 
H          H       0.89933   0.40821   0.87501 
H          H       0.40821   0.50888   0.87501 
H          H       0.49112   0.89933   0.87501 
H          H       0.10067   0.59179   0.87501 
H          H       0.48216   0.58615   0.67925 
H          H       0.41385   0.89601   0.67925 
H          H       0.10399   0.51784   0.67925 
H          H       0.51784   0.41385   0.67925 
H          H       0.58615   0.10399   0.67925 
H          H       0.89601   0.48216   0.67925 
H          H       0.48034   0.62757   0.68635 
H          H       0.37243   0.85277   0.68635 
H          H       0.14723   0.51966   0.68635 
H          H       0.51966   0.37243   0.68635 
H          H       0.62757   0.14723   0.68635 
H          H       0.85277   0.48034   0.68635 
H          H       0.56111   0.67034   0.91237 
H          H       0.32966   0.89077   0.91237 
H          H       0.10923   0.43889   0.91237 
H          H       0.43889   0.32966   0.91237 
H          H       0.67034   0.10923   0.91237 
H          H       0.89077   0.56111   0.91237 
H          H       0.56227   0.62833   0.92231 
H          H       0.37167   0.93394   0.92231 
H          H       0.06606   0.43773   0.92231 
H          H       0.43773   0.37167   0.92231 
H          H       0.62833   0.06606   0.92231 
H          H       0.93394   0.56227   0.92231 
H          H       0.71244   0.57318   0.69131 
H          H       0.42682   0.13926   0.69131 
H          H       0.86074   0.28756   0.69131 
H          H       0.28756   0.42682   0.69131 
H          H       0.57318   0.86074   0.69131 
H          H       0.13926   0.71244   0.69131 
H          H       0.48106   0.66834   0.76725 
H          H       0.33166   0.81272   0.76725 
H          H       0.18728   0.51894   0.76725 
H          H       0.51894   0.33166   0.76725 
H          H       0.66834   0.18728   0.76725 
H          H       0.81272   0.48106   0.76725 
H          H       0.76225   0.59057   0.70670 
H          H       0.40943   0.17168   0.70670 
H          H       0.82832   0.23775   0.70670 
H          H       0.23775   0.40943   0.70670 
H          H       0.59057   0.82832   0.70670 
H          H       0.17168   0.76225   0.70670 
H          H       0.80066   0.58271   0.72335 
H          H       0.41729   0.21795   0.72335 
H          H       0.78205   0.19934   0.72335 
H          H       0.19934   0.41729   0.72335 
H          H       0.58271   0.78205   0.72335 
H          H       0.21795   0.80066   0.72335 
H          H       0.70655   0.50435   0.75531 
H          H       0.49565   0.20220   0.75531 
H          H       0.79780   0.29345   0.75531 
H          H       0.29345   0.49565   0.75531 
H          H       0.50435   0.79780   0.75531 
H          H       0.20220   0.70655   0.75531 
H          H       0.72480   0.47212   0.78036 
H          H       0.52788   0.25268   0.78036 
H          H       0.74732   0.27520   0.78036 
H          H       0.27520   0.52788   0.78036 
H          H       0.47212   0.74732   0.78036 
H          H       0.25268   0.72480   0.78036 
H          H       0.76317   0.46417   0.79236 
H          H       0.53583   0.29900   0.79236 
H          H       0.70100   0.23683   0.79236 
H          H       0.23683   0.53583   0.79236 
H          H       0.46417   0.70100   0.79236 
H          H       0.29900   0.76317   0.79236 
H          H       0.81899   0.55046   0.75149 
H          H       0.44954   0.26853   0.75149 
H          H       0.73147   0.18101   0.75149 
H          H       0.18101   0.44954   0.75149 
H          H       0.55046   0.73147   0.75149 
H          H       0.26853   0.81899   0.75149 
