data_crystal

_cell_length_a    50.60340
_cell_length_b    26.70540
_cell_length_c    26.69920
_cell_angle_alpha 90.00000
_cell_angle_beta  90.00000
_cell_angle_gamma 90.00000

_space_group_name_Hall 'P 1'
_space_group_name_H-M_alt  'P 1'

loop_
_symmetry_equiv_pos_as_xyz
'x,y,z' 

loop_
_atom_site_label
_atom_site_type_symbol
_atom_site_fract_x
_atom_site_fract_y
_atom_site_fract_z
C          C       0.41468   0.53415   0.65579 
C          C       0.58532   0.46585   0.15579 
C          C       0.41468   0.46585   0.15579 
C          C       0.58532   0.53415   0.65579 
C          C       0.39614   0.53440   0.69452 
C          C       0.60386   0.46560   0.19452 
C          C       0.39614   0.46560   0.19452 
C          C       0.60386   0.53440   0.69452 
C          C       0.08495   0.77901   0.48092 
C          C       0.91505   0.22099   0.98092 
C          C       0.08495   0.22099   0.98092 
C          C       0.91505   0.77901   0.48092 
C          C       0.10311   0.73968   0.48449 
C          C       0.89689   0.26032   0.98449 
C          C       0.10311   0.26032   0.98449 
C          C       0.89689   0.73968   0.48449 
C          C       0.42936   0.38323   0.18064 
C          C       0.57064   0.61677   0.68064 
C          C       0.42936   0.61677   0.68064 
C          C       0.57064   0.38323   0.18064 
C          C       0.41083   0.38309   0.21942 
C          C       0.58917   0.61691   0.71942 
C          C       0.41083   0.61691   0.71942 
C          C       0.58917   0.38309   0.21942 
C          C       0.07000   0.91590   0.04479 
C          C       0.93000   0.08410   0.54479 
C          C       0.07000   0.08410   0.54479 
C          C       0.93000   0.91590   0.04479 
C          C       0.08853   0.87723   0.04374 
C          C       0.91147   0.12277   0.54374 
C          C       0.08853   0.12277   0.54374 
C          C       0.91147   0.87723   0.04374 
C          C       0.44401   0.57109   0.55882 
C          C       0.55599   0.42891   0.05882 
C          C       0.44401   0.42891   0.05882 
C          C       0.55599   0.57109   0.55882 
C          C       0.45213   0.57390   0.60919 
C          C       0.54787   0.42610   0.10919 
C          C       0.45213   0.42610   0.10919 
C          C       0.54787   0.57390   0.60919 
C          C       0.43149   0.57525   0.64876 
C          C       0.56851   0.42475   0.14876 
C          C       0.43149   0.42475   0.14876 
C          C       0.56851   0.57525   0.64876 
C          C       0.39414   0.57550   0.72669 
C          C       0.60586   0.42450   0.22669 
C          C       0.39414   0.42450   0.22669 
C          C       0.60586   0.57550   0.72669 
N          N       0.37601   0.57322   0.76781 
N          N       0.62399   0.42678   0.26781 
N          N       0.37601   0.42678   0.26781 
N          N       0.62399   0.57322   0.76781 
C          C       0.58226   0.57088   0.54433 
C          C       0.41774   0.42912   0.04433 
C          C       0.58226   0.42912   0.04433 
C          C       0.41774   0.57088   0.54433 
C          C       0.97883   0.18543   0.01611 
C          C       0.02117   0.81457   0.51611 
C          C       0.97883   0.81457   0.51611 
C          C       0.02117   0.18543   0.01611 
C          C       0.98647   0.23520   0.01638 
C          C       0.01353   0.76480   0.51638 
C          C       0.98647   0.76480   0.51638 
C          C       0.01353   0.23520   0.01638 
C          C       0.93165   0.20977   0.02142 
C          C       0.06835   0.79023   0.52142 
C          C       0.93165   0.79023   0.52142 
C          C       0.06835   0.20977   0.02142 
C          C       0.89517   0.28874   0.02868 
C          C       0.10483   0.71126   0.52868 
C          C       0.89517   0.71126   0.52868 
C          C       0.10483   0.28874   0.02868 
N          N       0.87802   0.33116   0.03273 
N          N       0.12198   0.66884   0.53273 
N          N       0.87802   0.66884   0.53273 
N          N       0.12198   0.33116   0.03273 
C          C       0.04785   0.17028   0.01692 
C          C       0.95215   0.82972   0.51692 
C          C       0.04785   0.82972   0.51692 
C          C       0.95215   0.17028   0.01692 
C          C       0.41566   0.60153   0.37884 
C          C       0.58434   0.39847   0.87884 
C          C       0.41566   0.39847   0.87884 
C          C       0.58434   0.60153   0.37884 
C          C       0.39740   0.60018   0.33957 
C          C       0.60260   0.39982   0.83957 
C          C       0.39740   0.39982   0.83957 
C          C       0.60260   0.60018   0.33957 
C          C       0.08576   0.05480   0.46435 
C          C       0.91424   0.94520   0.96435 
C          C       0.08576   0.94520   0.96435 
C          C       0.91424   0.05480   0.46435 
C          C       0.42871   0.48361   0.85984 
C          C       0.57129   0.51639   0.35984 
C          C       0.42871   0.51639   0.35984 
C          C       0.57129   0.48361   0.85984 
C          C       0.41048   0.48489   0.82063 
C          C       0.58952   0.51511   0.32063 
C          C       0.41048   0.51511   0.32063 
C          C       0.58952   0.48489   0.82063 
C          C       0.07030   0.23780   0.06562 
C          C       0.92970   0.76220   0.56562 
C          C       0.07030   0.76220   0.56562 
C          C       0.92970   0.23780   0.06562 
C          C       0.08844   0.27702   0.06916 
C          C       0.91156   0.72298   0.56916 
C          C       0.08844   0.72298   0.56916 
C          C       0.91156   0.27702   0.06916 
C          C       0.44401   0.56600   0.47874 
C          C       0.55599   0.43400   0.97874 
C          C       0.44401   0.43400   0.97874 
C          C       0.55599   0.56600   0.47874 
C          C       0.45214   0.56206   0.42849 
C          C       0.54786   0.43794   0.92849 
C          C       0.45214   0.43794   0.92849 
C          C       0.54786   0.56206   0.42849 
C          C       0.43153   0.55971   0.38895 
C          C       0.56847   0.44029   0.88895 
C          C       0.43153   0.44029   0.88895 
C          C       0.56847   0.55971   0.38895 
C          C       0.39483   0.55692   0.31004 
C          C       0.60517   0.44308   0.81004 
C          C       0.39483   0.44308   0.81004 
C          C       0.60517   0.55692   0.31004 
N          N       0.37776   0.55539   0.26732 
N          N       0.62224   0.44461   0.76732 
N          N       0.37776   0.44461   0.76732 
N          N       0.62224   0.55539   0.26732 
C          C       0.58226   0.56746   0.49309 
C          C       0.41774   0.43254   0.99309 
C          C       0.58226   0.43254   0.99309 
C          C       0.41774   0.56746   0.49309 
C          C       0.97882   0.97474   0.00268 
C          C       0.02118   0.02526   0.50268 
C          C       0.97882   0.02526   0.50268 
C          C       0.02118   0.97474   0.00268 
C          C       0.98647   0.92535   0.99654 
C          C       0.01353   0.07465   0.49654 
C          C       0.98647   0.07465   0.49654 
C          C       0.01353   0.92535   0.99654 
C          C       0.93158   0.94997   0.00501 
C          C       0.06842   0.05003   0.50501 
C          C       0.93158   0.05003   0.50501 
C          C       0.06842   0.94997   0.00501 
C          C       0.89421   0.87209   0.00283 
C          C       0.10579   0.12791   0.50283 
C          C       0.89421   0.12791   0.50283 
C          C       0.10579   0.87209   0.00283 
N          N       0.87583   0.83139   0.99981 
N          N       0.12417   0.16861   0.49981 
N          N       0.87583   0.16861   0.49981 
N          N       0.12417   0.83139   0.99981 
C          C       0.04786   0.98967   0.00543 
C          C       0.95214   0.01033   0.50543 
C          C       0.04786   0.01033   0.50543 
C          C       0.95214   0.98967   0.00543 
N          N       0.96023   0.08006   0.00997 
N          N       0.03977   0.91994   0.50997 
N          N       0.96023   0.91994   0.50997 
N          N       0.03977   0.08006   0.00997 
N          N       0.46029   0.56820   0.51881 
N          N       0.53971   0.43180   0.01881 
N          N       0.46029   0.43180   0.01881 
N          N       0.53971   0.56820   0.51881 
C          C       0.47882   0.57445   0.62433 
C          C       0.52118   0.42555   0.12433 
C          C       0.47882   0.42555   0.12433 
C          C       0.52118   0.57445   0.62433 
C          C       0.48647   0.57467   0.67410 
C          C       0.51353   0.42533   0.17410 
C          C       0.48647   0.42533   0.17410 
C          C       0.51353   0.57467   0.67410 
C          C       0.47882   0.56062   0.41339 
C          C       0.52118   0.43938   0.91339 
C          C       0.47882   0.43938   0.91339 
C          C       0.52118   0.56062   0.41339 
C          C       0.48647   0.55836   0.36367 
C          C       0.51353   0.44164   0.86367 
C          C       0.48647   0.44164   0.86367 
C          C       0.51353   0.55836   0.36367 
C          C       0.05601   0.88003   0.51451 
C          C       0.94399   0.11997   0.01451 
C          C       0.05601   0.11997   0.01451 
C          C       0.94399   0.88003   0.51451 
C          C       0.08222   0.89461   0.51694 
C          C       0.91778   0.10539   0.01694 
C          C       0.08222   0.10539   0.01694 
C          C       0.91778   0.89461   0.51694 
C          C       0.05601   0.96009   0.50941 
C          C       0.94399   0.03991   0.00941 
C          C       0.05601   0.03991   0.00941 
C          C       0.94399   0.96009   0.50941 
C          C       0.08222   0.94588   0.51369 
C          C       0.91778   0.05412   0.01369 
C          C       0.08222   0.05412   0.01369 
C          C       0.91778   0.94588   0.51369 
C          C       0.65299   0.41053   0.70763 
C          C       0.34701   0.58947   0.20763 
C          C       0.65299   0.58947   0.20763 
C          C       0.34701   0.41053   0.70763 
C          C       0.65163   0.45256   0.67627 
C          C       0.34837   0.54744   0.17627 
C          C       0.65163   0.54744   0.17627 
C          C       0.34837   0.45256   0.67627 
C          C       0.66847   0.36952   0.69348 
C          C       0.33153   0.63048   0.19348 
C          C       0.66847   0.63048   0.19348 
C          C       0.33153   0.36952   0.69348 
C          C       0.68231   0.37028   0.64814 
C          C       0.31769   0.62972   0.14814 
C          C       0.68231   0.62972   0.14814 
C          C       0.31769   0.37028   0.64814 
C          C       0.66539   0.45335   0.63095 
C          C       0.33461   0.54665   0.13095 
C          C       0.66539   0.54665   0.13095 
C          C       0.33461   0.45335   0.63095 
C          C       0.68068   0.41209   0.61656 
C          C       0.31932   0.58791   0.11656 
C          C       0.68068   0.58791   0.11656 
C          C       0.31932   0.41209   0.61656 
C          C       0.63717   0.40764   0.75358 
C          C       0.36283   0.59236   0.25358 
C          C       0.63717   0.59236   0.25358 
C          C       0.36283   0.40764   0.75358 
C          C       0.69411   0.41187   0.56734 
C          C       0.30589   0.58813   0.06734 
C          C       0.69411   0.58813   0.06734 
C          C       0.30589   0.41187   0.56734 
C          C       0.72188   0.41453   0.56460 
C          C       0.27812   0.58547   0.06460 
C          C       0.72188   0.58547   0.06460 
C          C       0.27812   0.41453   0.56460 
C          C       0.73463   0.41431   0.51765 
C          C       0.26537   0.58569   0.01765 
C          C       0.73463   0.58569   0.01765 
C          C       0.26537   0.41431   0.51765 
C          C       0.71960   0.41113   0.47329 
C          C       0.28040   0.58887   0.97329 
C          C       0.71960   0.58887   0.97329 
C          C       0.28040   0.41113   0.47329 
C          C       0.69179   0.40810   0.47577 
C          C       0.30821   0.59190   0.97577 
C          C       0.69179   0.59190   0.97577 
C          C       0.30821   0.40810   0.47577 
C          C       0.67910   0.40876   0.52289 
C          C       0.32090   0.59124   0.02289 
C          C       0.67910   0.59124   0.02289 
C          C       0.32090   0.40876   0.52289 
C          C       0.76398   0.41711   0.51510 
C          C       0.23602   0.58289   0.01510 
C          C       0.76398   0.58289   0.01510 
C          C       0.23602   0.41711   0.51510 
C          C       0.77660   0.46405   0.51149 
C          C       0.22340   0.53595   0.01149 
C          C       0.77660   0.53595   0.01149 
C          C       0.22340   0.46405   0.51149 
C          C       0.80443   0.46698   0.51122 
C          C       0.19557   0.53302   0.01122 
C          C       0.80443   0.53302   0.01122 
C          C       0.19557   0.46698   0.51122 
C          C       0.81957   0.42266   0.51419 
C          C       0.18043   0.57734   0.01419 
C          C       0.81957   0.57734   0.01419 
C          C       0.18043   0.42266   0.51419 
C          C       0.80700   0.37561   0.51795 
C          C       0.19300   0.62439   0.01795 
C          C       0.80700   0.62439   0.01795 
C          C       0.19300   0.37561   0.51795 
C          C       0.77917   0.37295   0.51816 
C          C       0.22083   0.62705   0.01816 
C          C       0.77917   0.62705   0.01816 
C          C       0.22083   0.37295   0.51816 
C          C       0.81785   0.51621   0.50881 
C          C       0.18215   0.48379   0.00881 
C          C       0.81785   0.48379   0.00881 
C          C       0.18215   0.51621   0.50881 
C          C       0.83302   0.53238   0.54952 
C          C       0.16698   0.46762   0.04952 
C          C       0.83302   0.46762   0.04952 
C          C       0.16698   0.53238   0.54952 
C          C       0.84779   0.57973   0.54666 
C          C       0.15221   0.42027   0.04666 
C          C       0.84779   0.42027   0.04666 
C          C       0.15221   0.57973   0.54666 
C          C       0.84644   0.60846   0.50312 
C          C       0.15356   0.39154   0.00312 
C          C       0.84644   0.39154   0.00312 
C          C       0.15356   0.60846   0.50312 
C          C       0.82987   0.59074   0.46130 
C          C       0.17013   0.40926   0.96130 
C          C       0.82987   0.40926   0.96130 
C          C       0.17013   0.59074   0.46130 
C          C       0.81625   0.54542   0.46531 
C          C       0.18375   0.45458   0.96531 
C          C       0.81625   0.45458   0.96531 
C          C       0.18375   0.54542   0.46531 
C          C       0.86255   0.65373   0.49711 
C          C       0.13745   0.34627   0.99711 
C          C       0.86255   0.34627   0.99711 
C          C       0.13745   0.65373   0.49711 
C          C       0.67591   0.40347   0.42937 
C          C       0.32409   0.59653   0.92937 
C          C       0.67591   0.59653   0.92937 
C          C       0.32409   0.40347   0.42937 
C          C       0.67476   0.44306   0.39495 
C          C       0.32524   0.55694   0.89495 
C          C       0.67476   0.55694   0.89495 
C          C       0.32524   0.44306   0.39495 
C          C       0.65889   0.43917   0.35224 
C          C       0.34111   0.56083   0.85224 
C          C       0.65889   0.56083   0.85224 
C          C       0.34111   0.43917   0.35224 
C          C       0.64409   0.39560   0.34361 
C          C       0.35591   0.60440   0.84361 
C          C       0.64409   0.60440   0.84361 
C          C       0.35591   0.39560   0.34361 
C          C       0.64540   0.35603   0.37777 
C          C       0.35460   0.64397   0.87777 
C          C       0.64540   0.64397   0.87777 
C          C       0.35460   0.35603   0.37777 
C          C       0.66123   0.35989   0.42043 
C          C       0.33877   0.64011   0.92043 
C          C       0.66123   0.64011   0.92043 
C          C       0.33877   0.35989   0.42043 
C          C       0.62627   0.39121   0.30055 
C          C       0.37373   0.60879   0.80055 
C          C       0.62627   0.60879   0.80055 
C          C       0.37373   0.39121   0.30055 
C          C       0.82309   0.32953   0.52269 
C          C       0.17691   0.67047   0.02269 
C          C       0.82309   0.67047   0.02269 
C          C       0.17691   0.32953   0.52269 
C          C       0.82333   0.29374   0.48428 
C          C       0.17667   0.70626   0.98428 
C          C       0.82333   0.70626   0.98428 
C          C       0.17667   0.29374   0.48428 
C          C       0.83954   0.25146   0.48810 
C          C       0.16046   0.74854   0.98810 
C          C       0.83954   0.74854   0.98810 
C          C       0.16046   0.25146   0.48810 
C          C       0.85558   0.24469   0.53040 
C          C       0.14442   0.75531   0.03040 
C          C       0.85558   0.75531   0.03040 
C          C       0.14442   0.24469   0.53040 
C          C       0.85513   0.28018   0.56886 
C          C       0.14487   0.71982   0.06886 
C          C       0.85513   0.71982   0.06886 
C          C       0.14487   0.28018   0.56886 
C          C       0.83898   0.32240   0.56506 
C          C       0.16102   0.67760   0.06506 
C          C       0.83898   0.67760   0.06506 
C          C       0.16102   0.32240   0.56506 
C          C       0.87375   0.20219   0.53467 
C          C       0.12625   0.79781   0.03467 
C          C       0.87375   0.79781   0.03467 
C          C       0.12625   0.20219   0.53467 
C          C       0.73795   0.41859   0.61170 
C          C       0.26205   0.58141   0.11170 
C          C       0.73795   0.58141   0.11170 
C          C       0.26205   0.41859   0.61170 
C          C       0.64948   0.40621   0.52579 
C          C       0.35052   0.59379   0.02579 
C          C       0.64948   0.59379   0.02579 
C          C       0.35052   0.40621   0.52579 
C          C       0.73335   0.40963   0.42351 
C          C       0.26665   0.59037   0.92351 
C          C       0.73335   0.59037   0.92351 
C          C       0.26665   0.40963   0.42351 
C          C       0.76561   0.32320   0.52307 
C          C       0.23439   0.67680   0.02307 
C          C       0.76561   0.67680   0.02307 
C          C       0.23439   0.32320   0.52307 
C          C       0.76032   0.51099   0.50951 
C          C       0.23968   0.48901   0.00951 
C          C       0.76032   0.48901   0.00951 
C          C       0.23968   0.51099   0.50951 
C          C       0.84919   0.42543   0.51138 
C          C       0.15081   0.57457   0.01138 
C          C       0.84919   0.57457   0.01138 
C          C       0.15081   0.42543   0.51138 
C          C       0.10434   0.90642   0.96332 
C          C       0.89566   0.09358   0.46332 
C          C       0.10434   0.09358   0.46332 
C          C       0.89566   0.90642   0.96332 
N          N       0.50000   0.56220   0.44425 
N          N       0.50000   0.43780   0.94425 
N          N       0.50000   0.57409   0.59343 
N          N       0.50000   0.42591   0.09343 
N          N       0.00000   0.84546   0.51564 
N          N       0.00000   0.15454   0.01564 
N          N       0.00000   0.99457   0.50618 
N          N       0.00000   0.00543   0.00618 
H          H       0.64146   0.40402   0.48877 
H          H       0.35854   0.59598   0.98877 
H          H       0.64146   0.59598   0.98877 
H          H       0.35854   0.40402   0.48877 
H          H       0.64213   0.43905   0.54404 
H          H       0.35787   0.56095   0.04404 
H          H       0.64213   0.56095   0.04404 
H          H       0.35787   0.43905   0.54404 
H          H       0.64376   0.37374   0.54662 
H          H       0.35624   0.62626   0.04662 
H          H       0.64376   0.62626   0.04662 
H          H       0.35624   0.37374   0.54662 
H          H       0.75849   0.42018   0.60234 
H          H       0.24151   0.57982   0.10234 
H          H       0.75849   0.57982   0.10234 
H          H       0.24151   0.42018   0.60234 
H          H       0.73432   0.38662   0.63485 
H          H       0.26568   0.61338   0.13485 
H          H       0.73432   0.61338   0.13485 
H          H       0.26568   0.38662   0.63485 
H          H       0.73249   0.45187   0.63147 
H          H       0.26751   0.54813   0.13147 
H          H       0.73249   0.54813   0.13147 
H          H       0.26751   0.45187   0.63147 
H          H       0.71897   0.40723   0.39423 
H          H       0.28103   0.59277   0.89423 
H          H       0.71897   0.59277   0.89423 
H          H       0.28103   0.40723   0.39423 
H          H       0.74606   0.37764   0.42200 
H          H       0.25394   0.62236   0.92200 
H          H       0.74606   0.62236   0.92200 
H          H       0.25394   0.37764   0.42200 
H          H       0.74483   0.44295   0.41881 
H          H       0.25517   0.55705   0.91881 
H          H       0.74483   0.55705   0.91881 
H          H       0.25517   0.44295   0.41881 
H          H       0.69375   0.33997   0.63791 
H          H       0.30625   0.66003   0.13791 
H          H       0.69375   0.66003   0.13791 
H          H       0.30625   0.33997   0.63791 
H          H       0.66969   0.33861   0.71656 
H          H       0.33031   0.66139   0.21656 
H          H       0.66969   0.66139   0.21656 
H          H       0.33031   0.33861   0.71656 
H          H       0.64040   0.48307   0.68674 
H          H       0.35960   0.51693   0.18674 
H          H       0.64040   0.51693   0.18674 
H          H       0.35960   0.48307   0.68674 
H          H       0.66429   0.48439   0.60802 
H          H       0.33571   0.51561   0.10802 
H          H       0.66429   0.51561   0.10802 
H          H       0.33571   0.48439   0.60802 
H          H       0.68565   0.47514   0.40114 
H          H       0.31435   0.52486   0.90114 
H          H       0.68565   0.52486   0.90114 
H          H       0.31435   0.47514   0.40114 
H          H       0.65807   0.46841   0.32702 
H          H       0.34193   0.53159   0.82702 
H          H       0.65807   0.53159   0.82702 
H          H       0.34193   0.46841   0.32702 
H          H       0.66212   0.33051   0.44549 
H          H       0.33788   0.66949   0.94549 
H          H       0.66212   0.66949   0.94549 
H          H       0.33788   0.33051   0.44549 
H          H       0.63463   0.32383   0.37144 
H          H       0.36537   0.67617   0.87144 
H          H       0.63463   0.67617   0.87144 
H          H       0.36537   0.32383   0.37144 
H          H       0.85519   0.46376   0.50870 
H          H       0.14481   0.53624   0.00870 
H          H       0.85519   0.53624   0.00870 
H          H       0.14481   0.46376   0.50870 
H          H       0.85592   0.40543   0.47909 
H          H       0.14408   0.59457   0.97909 
H          H       0.85592   0.59457   0.97909 
H          H       0.14408   0.40543   0.47909 
H          H       0.85755   0.40908   0.54436 
H          H       0.14245   0.59092   0.04436 
H          H       0.85755   0.59092   0.04436 
H          H       0.14245   0.40908   0.54436 
H          H       0.74466   0.32856   0.52250 
H          H       0.25534   0.67144   0.02250 
H          H       0.74466   0.67144   0.02250 
H          H       0.25534   0.32856   0.52250 
H          H       0.77124   0.30602   0.55767 
H          H       0.22876   0.69398   0.05767 
H          H       0.77124   0.69398   0.05767 
H          H       0.22876   0.30602   0.55767 
H          H       0.77127   0.29956   0.49254 
H          H       0.22873   0.70044   0.99254 
H          H       0.77127   0.70044   0.99254 
H          H       0.22873   0.29956   0.49254 
H          H       0.77311   0.54279   0.50683 
H          H       0.22689   0.45721   0.00683 
H          H       0.77311   0.45721   0.00683 
H          H       0.22689   0.54279   0.50683 
H          H       0.74864   0.51384   0.54279 
H          H       0.25136   0.48616   0.04279 
H          H       0.74864   0.48616   0.04279 
H          H       0.25136   0.51384   0.54279 
H          H       0.74761   0.50981   0.47750 
H          H       0.25239   0.49019   0.97750 
H          H       0.74761   0.49019   0.97750 
H          H       0.25239   0.50981   0.47750 
H          H       0.83385   0.51100   0.58168 
H          H       0.16615   0.48900   0.08168 
H          H       0.83385   0.48900   0.08168 
H          H       0.16615   0.51100   0.58168 
H          H       0.85906   0.59159   0.57662 
H          H       0.14094   0.40841   0.07662 
H          H       0.85906   0.40841   0.07662 
H          H       0.14094   0.59159   0.57662 
H          H       0.80481   0.53324   0.43572 
H          H       0.19519   0.46676   0.93572 
H          H       0.80481   0.46676   0.93572 
H          H       0.19519   0.53324   0.43572 
H          H       0.82833   0.61183   0.42904 
H          H       0.17167   0.38817   0.92904 
H          H       0.82833   0.38817   0.92904 
H          H       0.17167   0.61183   0.42904 
H          H       0.83875   0.34847   0.59359 
H          H       0.16125   0.65153   0.09359 
H          H       0.83875   0.65153   0.09359 
H          H       0.16125   0.34847   0.59359 
H          H       0.86678   0.27516   0.60019 
H          H       0.13322   0.72484   0.10019 
H          H       0.86678   0.72484   0.10019 
H          H       0.13322   0.27516   0.60019 
H          H       0.83969   0.22521   0.45974 
H          H       0.16031   0.77479   0.95974 
H          H       0.83969   0.77479   0.95974 
H          H       0.16031   0.22521   0.45974 
H          H       0.81153   0.29858   0.45313 
H          H       0.18847   0.70142   0.95313 
H          H       0.81153   0.70142   0.95313 
H          H       0.18847   0.29858   0.45313 
H          H       0.41746   0.63339   0.40044 
H          H       0.58254   0.36661   0.90044 
H          H       0.41746   0.36661   0.90044 
H          H       0.58254   0.63339   0.40044 
H          H       0.38577   0.63107   0.33225 
H          H       0.61423   0.36893   0.83225 
H          H       0.38577   0.36893   0.83225 
H          H       0.61423   0.63107   0.33225 
H          H       0.41601   0.50359   0.63226 
H          H       0.58399   0.49641   0.13226 
H          H       0.41601   0.49641   0.13226 
H          H       0.58399   0.50359   0.63226 
H          H       0.38382   0.50400   0.69943 
H          H       0.61618   0.49600   0.19943 
H          H       0.38382   0.49600   0.19943 
H          H       0.61618   0.50400   0.69943 
H          H       0.60044   0.56813   0.48254 
H          H       0.39956   0.43187   0.98254 
H          H       0.60044   0.43187   0.98254 
H          H       0.39956   0.56813   0.48254 
H          H       0.59848   0.57197   0.56737 
H          H       0.40152   0.42803   0.06737 
H          H       0.59848   0.42803   0.06737 
H          H       0.40152   0.57197   0.56737 
H          H       0.47678   0.56022   0.33102 
H          H       0.52322   0.43978   0.83102 
H          H       0.47678   0.43978   0.83102 
H          H       0.52322   0.56022   0.33102 
H          H       0.47878   0.57159   0.70783 
H          H       0.52122   0.42841   0.20783 
H          H       0.47878   0.42841   0.20783 
H          H       0.52122   0.57159   0.70783 
H          H       0.50073   0.55907   0.48587 
H          H       0.49927   0.44093   0.98587 
H          H       0.50067   0.57814   0.55229 
H          H       0.49933   0.42186   0.05229 
H          H       0.08519   0.78588   0.44228 
H          H       0.91481   0.21412   0.94228 
H          H       0.08519   0.21412   0.94228 
H          H       0.91481   0.78588   0.44228 
H          H       0.11309   0.72380   0.44846 
H          H       0.88691   0.27620   0.94846 
H          H       0.11309   0.27620   0.94846 
H          H       0.88691   0.72380   0.44846 
H          H       0.09771   0.96990   0.50642 
H          H       0.90229   0.03010   0.00642 
H          H       0.09771   0.03010   0.00642 
H          H       0.90229   0.96990   0.50642 
H          H       0.09937   0.88048   0.52090 
H          H       0.90063   0.11952   0.02090 
H          H       0.09937   0.11952   0.02090 
H          H       0.90063   0.88048   0.52090 
H          H       0.43148   0.34409   0.17065 
H          H       0.56852   0.65591   0.67065 
H          H       0.43148   0.65591   0.67065 
H          H       0.56852   0.34409   0.17065 
H          H       0.40090   0.35065   0.23166 
H          H       0.59910   0.64935   0.73166 
H          H       0.40090   0.64935   0.73166 
H          H       0.59910   0.35065   0.23166 
H          H       0.44066   0.50591   0.86854 
H          H       0.55934   0.49409   0.36854 
H          H       0.44066   0.49409   0.36854 
H          H       0.55934   0.50591   0.86854 
H          H       0.40831   0.51240   0.80272 
H          H       0.59169   0.48760   0.30272 
H          H       0.40831   0.48760   0.30272 
H          H       0.59169   0.51240   0.80272 
H          H       0.86332   0.66501   0.45936 
H          H       0.13668   0.33499   0.95936 
H          H       0.86332   0.33499   0.95936 
H          H       0.13668   0.66501   0.45936 
H          H       0.98291   0.90887   0.51044 
H          H       0.97994   0.07614   0.01061 
H          H       0.02015   0.91085   0.51022 
H          H       0.02615   0.08494   0.01067 
H          H       0.98102   0.72884   0.51600 
H          H       0.97732   0.26875   0.01627 
H          H       0.02002   0.27028   0.01535 
H          H       0.01717   0.72573   0.51650 
H          H       0.38905   0.64124   0.79928 
H          H       0.61443   0.63740   0.78604 
H          H       0.63015   0.62927   0.26776 
H          H       0.09461   0.71269   0.61228 
H          H       0.05471   0.77666   0.59544 
H          H       0.05073   0.91533   0.07121 
H          H       0.08786   0.85171   0.07195 
H          H       0.63322   0.37056   0.76414 
H          H       0.63055   0.35473   0.29591 
H          H       0.37999   0.35530   0.28865 
H          H       0.36930   0.62200   0.26455 
H          H       0.11329   0.19154   0.55601 
H          H       0.12687   0.78649   0.07306 
H          H       0.11021   0.90575   0.92486 
H          H       0.07382   0.97347   0.94098 
H          H       0.03151   0.89354   0.00722 
H          H       0.90450   0.70115   0.60605 
H          H       0.94032   0.78919   0.60546 
H          H       0.87909   0.81034   0.07134 
H          H       0.90589   0.85960   0.07888 
H          H       0.93853   0.93807   0.06856 
H          H       0.89134   0.89857   0.92876 
H          H       0.92632   0.96820   0.94348 
H          H       0.97551   0.88820   0.00427 
H          H       0.94347   0.07952   0.57397 
H          H       0.91303   0.14176   0.58016 
H          H       0.88757   0.19505   0.56049 
H          H       0.91863   0.02702   0.42936 
H          H       0.88587   0.09335   0.43609 
H          H       0.01599   0.10431   0.51177 
H          H       0.97998   0.10023   0.50990 
H          H       0.37096   0.37485   0.78056 
H          H       0.12030   0.10044   0.43844 
H          H       0.07789   0.03240   0.43473 
H          H       0.09555   0.14747   0.58055 
H          H       0.05372   0.08095   0.57865 
H          H       0.94445   0.22646   0.10102 
H          H       0.91041   0.29822   0.11034 
H          H       0.06168   0.22153   0.09834 
H          H       0.09337   0.29111   0.10505 
