data_crystal
 
_cell_length_a    24.95680
_cell_length_b    23.91180
_cell_length_c    7.77580
_cell_angle_alpha 90.00000
_cell_angle_beta  90.00000
_cell_angle_gamma 90.00000
 
_space_group_name_Hall 'P 1'
_space_group_name_H-M_alt  'P 1'
 
loop_
_symmetry_equiv_pos_as_xyz
 'x,y,z' 
 
loop_
_atom_site_label
_atom_site_type_symbol
_atom_site_fract_x
_atom_site_fract_y
_atom_site_fract_z
C          C       0.29794   0.30567   0.26873 
C          C       0.70206   0.69433   0.26873 
C          C       0.29794   0.69433   0.26873 
C          C       0.70206   0.30567   0.26873 
C          C       0.19678   0.19708   0.21485 
C          C       0.80322   0.80292   0.21485 
C          C       0.19678   0.80292   0.21485 
C          C       0.80322   0.19708   0.21485 
C          C       0.15017   0.19188   0.13428 
C          C       0.84983   0.80812   0.13428 
C          C       0.15017   0.80812   0.13428 
C          C       0.84983   0.19188   0.13428 
C          C       0.12167   0.14419   0.15080 
C          C       0.87833   0.85581   0.15080 
C          C       0.12167   0.85581   0.15080 
C          C       0.87833   0.14419   0.15080 
C          C       0.13790   0.10132   0.25371 
C          C       0.86210   0.89868   0.25371 
C          C       0.13790   0.89868   0.25371 
C          C       0.86210   0.10132   0.25371 
C          C       0.18520   0.10625   0.33238 
C          C       0.81480   0.89375   0.33238 
C          C       0.18520   0.89375   0.33238 
C          C       0.81480   0.10625   0.33238 
C          C       0.21446   0.15356   0.31269 
C          C       0.78554   0.84644   0.31269 
C          C       0.21446   0.84644   0.31269 
C          C       0.78554   0.15356   0.31269 
C          C       0.28377   0.35269   0.17898 
C          C       0.71623   0.64731   0.17898 
C          C       0.28377   0.64731   0.17898 
C          C       0.71623   0.35269   0.17898 
C          C       0.31533   0.39839   0.17444 
C          C       0.68467   0.60161   0.17444 
C          C       0.31533   0.60161   0.17444 
C          C       0.68467   0.39839   0.17444 
C          C       0.36122   0.39914   0.26217 
C          C       0.63878   0.60086   0.26217 
C          C       0.36122   0.60086   0.26217 
C          C       0.63878   0.39914   0.26217 
C          C       0.37426   0.35299   0.35696 
C          C       0.62574   0.64701   0.35696 
C          C       0.37426   0.64701   0.35696 
C          C       0.62574   0.35299   0.35696 
C          C       0.34342   0.30645   0.35733 
C          C       0.65658   0.69355   0.35733 
C          C       0.34342   0.69355   0.35733 
C          C       0.65658   0.30645   0.35733 
C          C       0.39302   0.44973   0.26025 
C          C       0.60698   0.55027   0.26025 
C          C       0.39302   0.55027   0.26025 
C          C       0.60698   0.44973   0.26025 
C          C       0.44634   0.44966   0.24091 
C          C       0.55366   0.55034   0.24091 
C          C       0.44634   0.55034   0.24091 
C          C       0.55366   0.44966   0.24091 
C          C       0.47374   0.40132   0.21195 
C          C       0.52626   0.59868   0.21195 
C          C       0.47374   0.59868   0.21195 
C          C       0.52626   0.40132   0.21195 
C          C       0.77410   0.24808   0.19342 
C          C       0.22590   0.75192   0.19342 
C          C       0.77410   0.75192   0.19342 
C          C       0.22590   0.24808   0.19342 
N          N       0.73283   0.25709   0.27647 
N          N       0.26717   0.74291   0.27647 
N          N       0.73283   0.74291   0.27647 
N          N       0.26717   0.25709   0.27647 
C          C       0.89284   0.94974   0.27221 
C          C       0.10716   0.05026   0.27221 
C          C       0.89284   0.05026   0.27221 
C          C       0.10716   0.94974   0.27221 
C          C       0.94624   0.94974   0.29247 
C          C       0.05376   0.05026   0.29247 
C          C       0.94624   0.05026   0.29247 
C          C       0.05376   0.94974   0.29247 
C          C       0.97377   0.90125   0.31732 
C          C       0.02623   0.09875   0.31732 
C          C       0.97377   0.09875   0.31732 
C          C       0.02623   0.90125   0.31732 
H          H       0.13611   0.22443   0.05567 
H          H       0.86389   0.77557   0.05567 
H          H       0.13611   0.77557   0.05567 
H          H       0.86389   0.22443   0.05567 
H          H       0.08686   0.14082   0.08231 
H          H       0.91314   0.85918   0.08231 
H          H       0.08686   0.85918   0.08231 
H          H       0.91314   0.14082   0.08231 
H          H       0.19910   0.07392   0.41203 
H          H       0.80090   0.92608   0.41203 
H          H       0.19910   0.92608   0.41203 
H          H       0.80090   0.07392   0.41203 
H          H       0.25043   0.15637   0.37601 
H          H       0.74957   0.84363   0.37601 
H          H       0.25043   0.84363   0.37601 
H          H       0.74957   0.15637   0.37601 
H          H       0.24886   0.35492   0.11041 
H          H       0.75114   0.64508   0.11041 
H          H       0.24886   0.64508   0.11041 
H          H       0.75114   0.35492   0.11041 
H          H       0.30397   0.43323   0.10025 
H          H       0.69603   0.56677   0.10025 
H          H       0.30397   0.56677   0.10025 
H          H       0.69603   0.43323   0.10025 
H          H       0.40796   0.35308   0.43258 
H          H       0.59204   0.64692   0.43258 
H          H       0.40796   0.64692   0.43258 
H          H       0.59204   0.35308   0.43258 
H          H       0.35445   0.27120   0.43017 
H          H       0.64555   0.72880   0.43017 
H          H       0.35445   0.72880   0.43017 
H          H       0.64555   0.27120   0.43017 
H          H       0.45518   0.36281   0.18793 
H          H       0.54482   0.63719   0.18793 
H          H       0.45518   0.63719   0.18793 
H          H       0.54482   0.36281   0.18793 
H          H       0.78854   0.27785   0.10674 
H          H       0.21146   0.72215   0.10674 
H          H       0.78854   0.72215   0.10674 
H          H       0.21146   0.27785   0.10674 
H          H       0.95543   0.86234   0.33641 
H          H       0.04457   0.13766   0.33641 
H          H       0.95543   0.13766   0.33641 
H          H       0.04457   0.86234   0.33641 
C          C       0.63194   0.50000   0.27753 
C          C       0.36806   0.50000   0.27753 
C          C       0.52689   0.50000   0.24337 
C          C       0.47311   0.50000   0.24337 
H          H       0.67222   0.50000   0.30211 
H          H       0.32778   0.50000   0.30211 
C          C       0.97304   0.00000   0.29245 
C          C       0.02696   0.00000   0.29245 
C          C       0.86757   0.00000   0.25926 
C          C       0.13243   0.00000   0.25926 
H          H       0.82733   0.00000   0.23423 
H          H       0.17267   0.00000   0.23423 
C          C       0.29794   0.30567   0.76873 
C          C       0.70206   0.69433   0.76873 
C          C       0.29794   0.69433   0.76873 
C          C       0.70206   0.30567   0.76873 
C          C       0.19678   0.19708   0.71485 
C          C       0.80322   0.80292   0.71485 
C          C       0.19678   0.80292   0.71485 
C          C       0.80322   0.19708   0.71485 
C          C       0.15017   0.19188   0.63428 
C          C       0.84983   0.80812   0.63428 
C          C       0.15017   0.80812   0.63428 
C          C       0.84983   0.19188   0.63428 
C          C       0.12167   0.14419   0.65081 
C          C       0.87833   0.85581   0.65081 
C          C       0.12167   0.85581   0.65081 
C          C       0.87833   0.14419   0.65081 
C          C       0.13790   0.10132   0.75371 
C          C       0.86210   0.89868   0.75371 
C          C       0.13790   0.89868   0.75371 
C          C       0.86210   0.10132   0.75371 
C          C       0.18520   0.10625   0.83238 
C          C       0.81480   0.89375   0.83238 
C          C       0.18520   0.89375   0.83238 
C          C       0.81480   0.10625   0.83238 
C          C       0.21446   0.15356   0.81269 
C          C       0.78554   0.84644   0.81269 
C          C       0.21446   0.84644   0.81269 
C          C       0.78554   0.15356   0.81269 
C          C       0.28377   0.35269   0.67898 
C          C       0.71623   0.64731   0.67898 
C          C       0.28377   0.64731   0.67898 
C          C       0.71623   0.35269   0.67898 
C          C       0.31533   0.39839   0.67444 
C          C       0.68467   0.60161   0.67444 
C          C       0.31533   0.60161   0.67444 
C          C       0.68467   0.39839   0.67444 
C          C       0.36122   0.39914   0.76217 
C          C       0.63878   0.60086   0.76217 
C          C       0.36122   0.60086   0.76217 
C          C       0.63878   0.39914   0.76217 
C          C       0.37426   0.35299   0.85696 
C          C       0.62574   0.64701   0.85696 
C          C       0.37426   0.64701   0.85696 
C          C       0.62574   0.35299   0.85696 
C          C       0.34342   0.30645   0.85733 
C          C       0.65658   0.69355   0.85733 
C          C       0.34342   0.69355   0.85733 
C          C       0.65658   0.30645   0.85733 
C          C       0.39302   0.44973   0.76024 
C          C       0.60698   0.55027   0.76024 
C          C       0.39302   0.55027   0.76024 
C          C       0.60698   0.44973   0.76024 
C          C       0.44634   0.44966   0.74091 
C          C       0.55366   0.55034   0.74091 
C          C       0.44634   0.55034   0.74091 
C          C       0.55366   0.44966   0.74091 
C          C       0.47374   0.40132   0.71195 
C          C       0.52626   0.59868   0.71195 
C          C       0.47374   0.59868   0.71195 
C          C       0.52626   0.40132   0.71195 
C          C       0.77410   0.24808   0.69342 
C          C       0.22590   0.75192   0.69342 
C          C       0.77410   0.75192   0.69342 
C          C       0.22590   0.24808   0.69342 
N          N       0.73283   0.25709   0.77647 
N          N       0.26717   0.74291   0.77647 
N          N       0.73283   0.74291   0.77647 
N          N       0.26717   0.25709   0.77647 
C          C       0.89284   0.94974   0.77221 
C          C       0.10716   0.05026   0.77221 
C          C       0.89284   0.05026   0.77221 
C          C       0.10716   0.94974   0.77221 
C          C       0.94624   0.94974   0.79247 
C          C       0.05376   0.05026   0.79247 
C          C       0.94624   0.05026   0.79247 
C          C       0.05376   0.94974   0.79247 
C          C       0.97377   0.90125   0.81732 
C          C       0.02623   0.09875   0.81732 
C          C       0.97377   0.09875   0.81732 
C          C       0.02623   0.90125   0.81732 
H          H       0.13611   0.22443   0.55567 
H          H       0.86389   0.77557   0.55567 
H          H       0.13611   0.77557   0.55567 
H          H       0.86389   0.22443   0.55567 
H          H       0.08686   0.14082   0.58232 
H          H       0.91314   0.85918   0.58232 
H          H       0.08686   0.85918   0.58232 
H          H       0.91314   0.14082   0.58232 
H          H       0.19910   0.07392   0.91203 
H          H       0.80090   0.92608   0.91203 
H          H       0.19910   0.92608   0.91203 
H          H       0.80090   0.07392   0.91203 
H          H       0.25043   0.15637   0.87601 
H          H       0.74957   0.84363   0.87601 
H          H       0.25043   0.84363   0.87601 
H          H       0.74957   0.15637   0.87601 
H          H       0.24886   0.35492   0.61040 
H          H       0.75114   0.64508   0.61040 
H          H       0.24886   0.64508   0.61040 
H          H       0.75114   0.35492   0.61040 
H          H       0.30397   0.43323   0.60025 
H          H       0.69603   0.56677   0.60025 
H          H       0.30397   0.56677   0.60025 
H          H       0.69603   0.43323   0.60025 
H          H       0.40796   0.35308   0.93258 
H          H       0.59204   0.64692   0.93258 
H          H       0.40796   0.64692   0.93258 
H          H       0.59204   0.35308   0.93258 
H          H       0.35445   0.27120   0.93017 
H          H       0.64555   0.72880   0.93017 
H          H       0.35445   0.72880   0.93017 
H          H       0.64555   0.27120   0.93017 
H          H       0.45518   0.36281   0.68794 
H          H       0.54482   0.63719   0.68794 
H          H       0.45518   0.63719   0.68794 
H          H       0.54482   0.36281   0.68794 
H          H       0.78854   0.27785   0.60674 
H          H       0.21146   0.72215   0.60674 
H          H       0.78854   0.72215   0.60674 
H          H       0.21146   0.27785   0.60674 
H          H       0.95543   0.86234   0.83641 
H          H       0.04457   0.13766   0.83641 
H          H       0.95543   0.13766   0.83641 
H          H       0.04457   0.86234   0.83641 
C          C       0.63194   0.50000   0.77753 
C          C       0.36806   0.50000   0.77753 
C          C       0.52689   0.50000   0.74337 
C          C       0.47311   0.50000   0.74337 
H          H       0.67222   0.50000   0.80211 
H          H       0.32778   0.50000   0.80211 
C          C       0.97304   0.00000   0.79245 
C          C       0.02696   0.00000   0.79245 
C          C       0.86757   0.00000   0.75926 
C          C       0.13243   0.00000   0.75926 
H          H       0.82733   0.00000   0.73423 
H          H       0.17267   0.00000   0.73423 
