data_crystal
 
_cell_length_a    32.13900
_cell_length_b    33.37120
_cell_length_c    7.49120
_cell_angle_alpha 90.00000
_cell_angle_beta  90.00000
_cell_angle_gamma 90.00000
 
_space_group_name_Hall 'P 1'
_space_group_name_H-M_alt  'P 1'
 
loop_
_symmetry_equiv_pos_as_xyz
 'x,y,z' 
 
loop_
_atom_site_label
_atom_site_type_symbol
_atom_site_fract_x
_atom_site_fract_y
_atom_site_fract_z
C          C       0.22339   0.21677   0.25549 
C          C       0.77661   0.78323   0.25549 
C          C       0.22339   0.78323   0.25549 
C          C       0.77661   0.21677   0.25549 
C          C       0.72339   0.71677   0.25549 
C          C       0.27661   0.28323   0.25549 
C          C       0.72339   0.28323   0.25549 
C          C       0.27661   0.71677   0.25549 
C          C       0.14384   0.14753   0.22298 
C          C       0.85616   0.85247   0.22298 
C          C       0.14384   0.85247   0.22298 
C          C       0.85616   0.14753   0.22298 
C          C       0.64384   0.64753   0.22298 
C          C       0.35616   0.35247   0.22298 
C          C       0.64384   0.35247   0.22298 
C          C       0.35616   0.64753   0.22298 
C          C       0.10990   0.14489   0.14384 
C          C       0.89010   0.85511   0.14384 
C          C       0.10990   0.85511   0.14384 
C          C       0.89010   0.14489   0.14384 
C          C       0.60990   0.64489   0.14384 
C          C       0.39010   0.35511   0.14384 
C          C       0.60990   0.35511   0.14384 
C          C       0.39010   0.64489   0.14384 
C          C       0.08887   0.10880   0.15609 
C          C       0.91113   0.89120   0.15609 
C          C       0.08887   0.89120   0.15609 
C          C       0.91113   0.10880   0.15609 
C          C       0.58887   0.60880   0.15609 
C          C       0.41113   0.39120   0.15609 
C          C       0.58887   0.39120   0.15609 
C          C       0.41113   0.60880   0.15609 
C          C       0.09963   0.07446   0.25372 
C          C       0.90037   0.92554   0.25372 
C          C       0.09963   0.92554   0.25372 
C          C       0.90037   0.07446   0.25372 
C          C       0.59963   0.57446   0.25372 
C          C       0.40037   0.42554   0.25372 
C          C       0.59963   0.42554   0.25372 
C          C       0.40037   0.57446   0.25372 
C          C       0.13382   0.07772   0.33327 
C          C       0.86618   0.92228   0.33327 
C          C       0.13382   0.92228   0.33327 
C          C       0.86618   0.07772   0.33327 
C          C       0.63382   0.57772   0.33327 
C          C       0.36618   0.42228   0.33327 
C          C       0.63382   0.42228   0.33327 
C          C       0.36618   0.57772   0.33327 
C          C       0.15563   0.11311   0.31657 
C          C       0.84437   0.88689   0.31657 
C          C       0.15563   0.88689   0.31657 
C          C       0.84437   0.11311   0.31657 
C          C       0.65563   0.61311   0.31657 
C          C       0.34437   0.38689   0.31657 
C          C       0.65563   0.38689   0.31657 
C          C       0.34437   0.61311   0.31657 
C          C       0.21322   0.25889   0.25654 
C          C       0.78678   0.74111   0.25654 
C          C       0.21322   0.74111   0.25654 
C          C       0.78678   0.25889   0.25654 
C          C       0.71322   0.75889   0.25654 
C          C       0.28678   0.24111   0.25654 
C          C       0.71322   0.24111   0.25654 
C          C       0.28678   0.75889   0.25654 
C          C       0.26034   0.20673   0.25755 
C          C       0.73966   0.79327   0.25755 
C          C       0.26034   0.79327   0.25755 
C          C       0.73966   0.20673   0.25755 
C          C       0.76034   0.70673   0.25755 
C          C       0.23966   0.29327   0.25755 
C          C       0.76034   0.29327   0.25755 
C          C       0.23966   0.70673   0.25755 
C          C       0.42259   0.45838   0.26774 
C          C       0.57741   0.54162   0.26774 
C          C       0.42259   0.54162   0.26774 
C          C       0.57741   0.45838   0.26774 
C          C       0.92259   0.95838   0.26774 
C          C       0.07741   0.04162   0.26774 
C          C       0.92259   0.04162   0.26774 
C          C       0.07741   0.95838   0.26774 
C          C       0.46095   0.45886   0.29118 
C          C       0.53905   0.54114   0.29118 
C          C       0.46095   0.54114   0.29118 
C          C       0.53905   0.45886   0.29118 
C          C       0.96095   0.95886   0.29118 
C          C       0.03905   0.04114   0.29118 
C          C       0.96095   0.04114   0.29118 
C          C       0.03905   0.95886   0.29118 
C          C       0.48114   0.42244   0.31913 
C          C       0.51886   0.57756   0.31913 
C          C       0.48114   0.57756   0.31913 
C          C       0.51886   0.42244   0.31913 
C          C       0.98114   0.92244   0.31913 
C          C       0.01886   0.07756   0.31913 
C          C       0.98114   0.07756   0.31913 
C          C       0.01886   0.92244   0.31913 
C          C       0.33520   0.31324   0.20741 
C          C       0.66480   0.68676   0.20741 
C          C       0.33520   0.68676   0.20741 
C          C       0.66480   0.31324   0.20741 
C          C       0.83520   0.81324   0.20741 
C          C       0.16480   0.18676   0.20741 
C          C       0.83520   0.18676   0.20741 
C          C       0.16480   0.81324   0.20741 
N          N       0.30019   0.31208   0.25466 
N          N       0.69981   0.68792   0.25466 
N          N       0.30019   0.68792   0.25466 
N          N       0.69981   0.31208   0.25466 
N          N       0.80019   0.81208   0.25466 
N          N       0.19981   0.18792   0.25466 
N          N       0.80019   0.18792   0.25466 
N          N       0.19981   0.81208   0.25466 
H          H       0.10042   0.16899   0.07371 
H          H       0.89958   0.83101   0.07371 
H          H       0.10042   0.83101   0.07371 
H          H       0.89958   0.16899   0.07371 
H          H       0.60042   0.66899   0.07371 
H          H       0.39958   0.33101   0.07371 
H          H       0.60042   0.33101   0.07371 
H          H       0.39958   0.66899   0.07371 
H          H       0.06533   0.10782   0.09063 
H          H       0.93467   0.89218   0.09063 
H          H       0.06533   0.89218   0.09063 
H          H       0.93467   0.10782   0.09063 
H          H       0.56533   0.60782   0.09063 
H          H       0.43467   0.39218   0.09063 
H          H       0.56533   0.39218   0.09063 
H          H       0.43467   0.60782   0.09063 
H          H       0.14320   0.05417   0.40655 
H          H       0.85680   0.94583   0.40655 
H          H       0.14320   0.94583   0.40655 
H          H       0.85680   0.05417   0.40655 
H          H       0.64320   0.55417   0.40655 
H          H       0.35680   0.44583   0.40655 
H          H       0.64320   0.44583   0.40655 
H          H       0.35680   0.55417   0.40655 
H          H       0.18007   0.11381   0.37587 
H          H       0.81993   0.88619   0.37587 
H          H       0.18007   0.88619   0.37587 
H          H       0.81993   0.11381   0.37587 
H          H       0.68007   0.61381   0.37587 
H          H       0.31993   0.38619   0.37587 
H          H       0.68007   0.38619   0.37587 
H          H       0.31993   0.61381   0.37587 
H          H       0.18665   0.26706   0.25802 
H          H       0.81335   0.73294   0.25802 
H          H       0.18665   0.73294   0.25802 
H          H       0.81335   0.26706   0.25802 
H          H       0.68665   0.76706   0.25802 
H          H       0.31335   0.23294   0.25802 
H          H       0.68665   0.23294   0.25802 
H          H       0.31335   0.76706   0.25802 
H          H       0.26807   0.17638   0.25892 
H          H       0.73193   0.82362   0.25892 
H          H       0.26807   0.82362   0.25892 
H          H       0.73193   0.17638   0.25892 
H          H       0.76807   0.67638   0.25892 
H          H       0.23193   0.32362   0.25892 
H          H       0.76807   0.32362   0.25892 
H          H       0.23193   0.67638   0.25892 
H          H       0.46876   0.39477   0.33968 
H          H       0.53124   0.60523   0.33968 
H          H       0.46876   0.60523   0.33968 
H          H       0.53124   0.39477   0.33968 
H          H       0.96876   0.89477   0.33968 
H          H       0.03124   0.10523   0.33968 
H          H       0.96876   0.10523   0.33968 
H          H       0.03124   0.89477   0.33968 
H          H       0.34667   0.28741   0.15623 
H          H       0.65333   0.71259   0.15623 
H          H       0.34667   0.71259   0.15623 
H          H       0.65333   0.28741   0.15623 
H          H       0.84667   0.78741   0.15623 
H          H       0.15333   0.21259   0.15623 
H          H       0.84667   0.21259   0.15623 
H          H       0.15333   0.78741   0.15623 
C          C       0.01930   0.00000   0.29116 
C          C       0.98070   0.00000   0.29116 
C          C       0.51930   0.50000   0.29116 
C          C       0.48070   0.50000   0.29116 
C          C       0.09498   0.00000   0.25289 
C          C       0.90502   0.00000   0.25289 
C          C       0.59498   0.50000   0.25289 
C          C       0.40502   0.50000   0.25289 
C          C       0.22339   0.21677   0.75548 
C          C       0.77661   0.78323   0.75548 
C          C       0.22339   0.78323   0.75548 
C          C       0.77661   0.21677   0.75548 
C          C       0.72339   0.71677   0.75548 
C          C       0.27661   0.28323   0.75548 
C          C       0.72339   0.28323   0.75548 
C          C       0.27661   0.71677   0.75548 
C          C       0.14384   0.14753   0.72298 
C          C       0.85616   0.85247   0.72298 
C          C       0.14384   0.85247   0.72298 
C          C       0.85616   0.14753   0.72298 
C          C       0.64384   0.64753   0.72298 
C          C       0.35616   0.35247   0.72298 
C          C       0.64384   0.35247   0.72298 
C          C       0.35616   0.64753   0.72298 
C          C       0.10990   0.14489   0.64385 
C          C       0.89010   0.85511   0.64385 
C          C       0.10990   0.85511   0.64385 
C          C       0.89010   0.14489   0.64385 
C          C       0.60990   0.64489   0.64385 
C          C       0.39010   0.35511   0.64385 
C          C       0.60990   0.35511   0.64385 
C          C       0.39010   0.64489   0.64385 
C          C       0.08887   0.10880   0.65609 
C          C       0.91113   0.89120   0.65609 
C          C       0.08887   0.89120   0.65609 
C          C       0.91113   0.10880   0.65609 
C          C       0.58887   0.60880   0.65609 
C          C       0.41113   0.39120   0.65609 
C          C       0.58887   0.39120   0.65609 
C          C       0.41113   0.60880   0.65609 
C          C       0.09963   0.07446   0.75372 
C          C       0.90037   0.92554   0.75372 
C          C       0.09963   0.92554   0.75372 
C          C       0.90037   0.07446   0.75372 
C          C       0.59963   0.57446   0.75372 
C          C       0.40037   0.42554   0.75372 
C          C       0.59963   0.42554   0.75372 
C          C       0.40037   0.57446   0.75372 
C          C       0.13382   0.07772   0.83327 
C          C       0.86618   0.92228   0.83327 
C          C       0.13382   0.92228   0.83327 
C          C       0.86618   0.07772   0.83327 
C          C       0.63382   0.57772   0.83327 
C          C       0.36618   0.42228   0.83327 
C          C       0.63382   0.42228   0.83327 
C          C       0.36618   0.57772   0.83327 
C          C       0.15563   0.11311   0.81658 
C          C       0.84437   0.88689   0.81658 
C          C       0.15563   0.88689   0.81658 
C          C       0.84437   0.11311   0.81658 
C          C       0.65563   0.61311   0.81658 
C          C       0.34437   0.38689   0.81658 
C          C       0.65563   0.38689   0.81658 
C          C       0.34437   0.61311   0.81658 
C          C       0.21322   0.25889   0.75653 
C          C       0.78678   0.74111   0.75653 
C          C       0.21322   0.74111   0.75653 
C          C       0.78678   0.25889   0.75653 
C          C       0.71322   0.75889   0.75653 
C          C       0.28678   0.24111   0.75653 
C          C       0.71322   0.24111   0.75653 
C          C       0.28678   0.75889   0.75653 
C          C       0.26034   0.20673   0.75755 
C          C       0.73966   0.79327   0.75755 
C          C       0.26034   0.79327   0.75755 
C          C       0.73966   0.20673   0.75755 
C          C       0.76034   0.70673   0.75755 
C          C       0.23966   0.29327   0.75755 
C          C       0.76034   0.29327   0.75755 
C          C       0.23966   0.70673   0.75755 
C          C       0.42259   0.45838   0.76773 
C          C       0.57741   0.54162   0.76773 
C          C       0.42259   0.54162   0.76773 
C          C       0.57741   0.45838   0.76773 
C          C       0.92259   0.95838   0.76773 
C          C       0.07741   0.04162   0.76773 
C          C       0.92259   0.04162   0.76773 
C          C       0.07741   0.95838   0.76773 
C          C       0.46095   0.45886   0.79118 
C          C       0.53905   0.54114   0.79118 
C          C       0.46095   0.54114   0.79118 
C          C       0.53905   0.45886   0.79118 
C          C       0.96095   0.95886   0.79118 
C          C       0.03905   0.04114   0.79118 
C          C       0.96095   0.04114   0.79118 
C          C       0.03905   0.95886   0.79118 
C          C       0.48114   0.42244   0.81913 
C          C       0.51886   0.57756   0.81913 
C          C       0.48114   0.57756   0.81913 
C          C       0.51886   0.42244   0.81913 
C          C       0.98114   0.92244   0.81913 
C          C       0.01886   0.07756   0.81913 
C          C       0.98114   0.07756   0.81913 
C          C       0.01886   0.92244   0.81913 
C          C       0.33520   0.31324   0.70741 
C          C       0.66480   0.68676   0.70741 
C          C       0.33520   0.68676   0.70741 
C          C       0.66480   0.31324   0.70741 
C          C       0.83520   0.81324   0.70741 
C          C       0.16480   0.18676   0.70741 
C          C       0.83520   0.18676   0.70741 
C          C       0.16480   0.81324   0.70741 
N          N       0.30019   0.31208   0.75465 
N          N       0.69981   0.68792   0.75465 
N          N       0.30019   0.68792   0.75465 
N          N       0.69981   0.31208   0.75465 
N          N       0.80019   0.81208   0.75465 
N          N       0.19981   0.18792   0.75465 
N          N       0.80019   0.18792   0.75465 
N          N       0.19981   0.81208   0.75465 
H          H       0.10042   0.16899   0.57371 
H          H       0.89958   0.83101   0.57371 
H          H       0.10042   0.83101   0.57371 
H          H       0.89958   0.16899   0.57371 
H          H       0.60042   0.66899   0.57371 
H          H       0.39958   0.33101   0.57371 
H          H       0.60042   0.33101   0.57371 
H          H       0.39958   0.66899   0.57371 
H          H       0.06533   0.10782   0.59064 
H          H       0.93467   0.89218   0.59064 
H          H       0.06533   0.89218   0.59064 
H          H       0.93467   0.10782   0.59064 
H          H       0.56533   0.60782   0.59064 
H          H       0.43467   0.39218   0.59064 
H          H       0.56533   0.39218   0.59064 
H          H       0.43467   0.60782   0.59064 
H          H       0.14320   0.05417   0.90655 
H          H       0.85680   0.94583   0.90655 
H          H       0.14320   0.94583   0.90655 
H          H       0.85680   0.05417   0.90655 
H          H       0.64320   0.55417   0.90655 
H          H       0.35680   0.44583   0.90655 
H          H       0.64320   0.44583   0.90655 
H          H       0.35680   0.55417   0.90655 
H          H       0.18007   0.11381   0.87586 
H          H       0.81993   0.88619   0.87586 
H          H       0.18007   0.88619   0.87586 
H          H       0.81993   0.11381   0.87586 
H          H       0.68007   0.61381   0.87586 
H          H       0.31993   0.38619   0.87586 
H          H       0.68007   0.38619   0.87586 
H          H       0.31993   0.61381   0.87586 
H          H       0.18665   0.26706   0.75802 
H          H       0.81335   0.73294   0.75802 
H          H       0.18665   0.73294   0.75802 
H          H       0.81335   0.26706   0.75802 
H          H       0.68665   0.76706   0.75802 
H          H       0.31335   0.23294   0.75802 
H          H       0.68665   0.23294   0.75802 
H          H       0.31335   0.76706   0.75802 
H          H       0.26807   0.17638   0.75892 
H          H       0.73193   0.82362   0.75892 
H          H       0.26807   0.82362   0.75892 
H          H       0.73193   0.17638   0.75892 
H          H       0.76807   0.67638   0.75892 
H          H       0.23193   0.32362   0.75892 
H          H       0.76807   0.32362   0.75892 
H          H       0.23193   0.67638   0.75892 
H          H       0.46876   0.39477   0.83968 
H          H       0.53124   0.60523   0.83968 
H          H       0.46876   0.60523   0.83968 
H          H       0.53124   0.39477   0.83968 
H          H       0.96876   0.89477   0.83968 
H          H       0.03124   0.10523   0.83968 
H          H       0.96876   0.10523   0.83968 
H          H       0.03124   0.89477   0.83968 
H          H       0.34667   0.28741   0.65623 
H          H       0.65333   0.71259   0.65623 
H          H       0.34667   0.71259   0.65623 
H          H       0.65333   0.28741   0.65623 
H          H       0.84667   0.78741   0.65623 
H          H       0.15333   0.21259   0.65623 
H          H       0.84667   0.21259   0.65623 
H          H       0.15333   0.78741   0.65623 
C          C       0.01930   0.00000   0.79116 
C          C       0.98070   0.00000   0.79116 
C          C       0.51930   0.50000   0.79116 
C          C       0.48070   0.50000   0.79116 
C          C       0.09498   0.00000   0.75289 
C          C       0.90502   0.00000   0.75289 
C          C       0.59498   0.50000   0.75289 
C          C       0.40502   0.50000   0.75289 
