data_crystal

_cell_length_a    22.71270
_cell_length_b    22.71270
_cell_length_c    6.60000
_cell_angle_alpha 90.00000
_cell_angle_beta  90.00000
_cell_angle_gamma 90.00000

_space_group_name_Hall 'P 1'
_space_group_name_H-M_alt  'P 1'

loop_
_symmetry_equiv_pos_as_xyz
'x,y,z' 

loop_
_atom_site_label
_atom_site_type_symbol
_atom_site_fract_x
_atom_site_fract_y
_atom_site_fract_z
C          C       0.28487   0.18269   0.50655 
C          C       0.28487   0.11979   0.50650 
C          C       0.22327   0.10178   0.50653 
C          C       0.22327   0.20070   0.50658 
C          C       0.33640   0.21479   0.50657 
C          C       0.33639   0.08769   0.50646 
C          C       0.15069   0.27327   0.50663 
C          C       0.13268   0.33486   0.50668 
C          C       0.06978   0.33486   0.50672 
C          C       0.16479   0.38639   0.50671 
C          C       0.05177   0.27327   0.50668 
C          C       0.03768   0.38639   0.50682 
C          C       0.97920   0.20069   0.50671 
C          C       0.91760   0.18267   0.50674 
C          C       0.91762   0.11977   0.50673 
C          C       0.86607   0.21475   0.50677 
C          C       0.97921   0.10177   0.50671 
C          C       0.86610   0.08764   0.50670 
C          C       0.05178   0.02921   0.50669 
C          C       0.06979   0.96762   0.50674 
C          C       0.13269   0.96761   0.50664 
C          C       0.03766   0.91610   0.50686 
C          C       0.15070   0.02920   0.50658 
C          C       0.16477   0.91607   0.50663 
C          C       0.13314   0.86219   0.50677 
C          C       0.06925   0.86220   0.50689 
C          C       0.81220   0.11922   0.50668 
C          C       0.81218   0.18311   0.50673 
C          C       0.13319   0.44028   0.50680 
C          C       0.06929   0.44029   0.50687 
C          C       0.39028   0.18318   0.50654 
C          C       0.39029   0.11929   0.50648 
C          C       0.60119   0.11932   0.50655 
C          C       0.54762   0.08730   0.50652 
C          C       0.54837   0.02540   0.50653 
C          C       0.60105   0.99346   0.50653 
C          C       0.65390   0.02552   0.50649 
C          C       0.65486   0.08721   0.50652 
C          C       0.49179   0.11936   0.50652 
C          C       0.60282   0.92583   0.50652 
C          C       0.71071   0.11928   0.50659 
C          C       0.60129   0.18304   0.50663 
C          C       0.54763   0.21516   0.50668 
C          C       0.54859   0.27684   0.50686 
C          C       0.60144   0.30890   0.50700 
C          C       0.65412   0.27696   0.50688 
C          C       0.65486   0.21506   0.50671 
C          C       0.49178   0.18309   0.50659 
C          C       0.59968   0.37653   0.50735 
C          C       0.71068   0.18301   0.50667 
C          C       0.63566   0.90432   0.31520 
C          C       0.54084   0.89857   0.50703 
H          H       0.34105   0.73702   0.37181 
C          C       0.66165   0.40380   0.50752 
C          C       0.56671   0.39796   0.69851 
H          H       0.40215   0.70797   0.50685 
C          C       0.06935   0.65120   0.50706 
C          C       0.03732   0.59762   0.50711 
C          C       0.97542   0.59838   0.50729 
C          C       0.94349   0.65107   0.50742 
C          C       0.97555   0.70391   0.50732 
C          C       0.03724   0.70486   0.50714 
C          C       0.06937   0.54179   0.50700 
C          C       0.87586   0.65283   0.50766 
C          C       0.06931   0.76071   0.50703 
C          C       0.13307   0.65129   0.50694 
C          C       0.16518   0.59762   0.50689 
C          C       0.22686   0.59858   0.50684 
C          C       0.25893   0.65142   0.50682 
C          C       0.22699   0.70411   0.50684 
C          C       0.16509   0.70486   0.50690 
C          C       0.13311   0.54177   0.50690 
C          C       0.32656   0.64965   0.50671 
C          C       0.13304   0.76068   0.50690 
C          C       0.85428   0.68579   0.31668 
C          C       0.85439   0.68582   0.69875 
C          C       0.84859   0.59086   0.50781 
C          C       0.35383   0.71162   0.50686 
C          C       0.34803   0.61673   0.31551 
C          C       0.34810   0.61663   0.69761 
N          N       0.18785   0.15124   0.50657 
N          N       0.20674   0.25674   0.50661 
N          N       0.10123   0.23785   0.50662 
N          N       0.99572   0.25674   0.50670 
N          N       0.01463   0.15124   0.50668 
N          N       0.99574   0.04573   0.50673 
N          N       0.10124   0.06463   0.50661 
N          N       0.20675   0.04573   0.50653 
N          N       0.16362   0.49169   0.50681 
N          N       0.03886   0.49169   0.50698 
N          N       0.76078   0.21353   0.50673 
N          N       0.76080   0.08877   0.50661 
N          N       0.44170   0.21361   0.50660 
N          N       0.44169   0.08885   0.50647 
N          N       0.03881   0.81080   0.50703 
N          N       0.16356   0.81078   0.50678 
Cu         Cu      0.10124   0.15124   0.50661 
H          H       0.98964   0.91554   0.50694 
H          H       0.21280   0.91547   0.50652 
H          H       0.86546   0.26278   0.50681 
H          H       0.86555   0.03961   0.50668 
H          H       0.21281   0.38696   0.50667 
H          H       0.98966   0.38698   0.50688 
H          H       0.33698   0.26282   0.50661 
H          H       0.33697   0.03966   0.50641 
H          H       0.50582   0.00326   0.50654 
H          H       0.69640   0.00314   0.50645 
H          H       0.50609   0.29923   0.50691 
H          H       0.69667   0.29910   0.50694 
H          H       0.68101   0.92119   0.30917 
H          H       0.61284   0.91870   0.17664 
H          H       0.63780   0.85587   0.31393 
H          H       0.51538   0.91133   0.37211 
H          H       0.51556   0.91137   0.64231 
H          H       0.54448   0.85024   0.50707 
H          H       0.86133   0.56547   0.37269 
H          H       0.33118   0.57137   0.30975 
H          H       0.39648   0.61460   0.31412 
H          H       0.68702   0.39108   0.37233 
H          H       0.68703   0.39093   0.64253 
H          H       0.65802   0.45212   0.50784 
H          H       0.58942   0.38352   0.83718 
H          H       0.52135   0.38109   0.70410 
H          H       0.56456   0.44641   0.70001 
H          H       0.33377   0.63932   0.83646 
H          H       0.39655   0.61446   0.69869 
H          H       0.33122   0.57128   0.70324 
H          H       0.95328   0.55583   0.50732 
H          H       0.95317   0.74641   0.50739 
H          H       0.24925   0.55607   0.50681 
H          H       0.24913   0.74665   0.50682 
H          H       0.80027   0.59450   0.50799 
H          H       0.87110   0.73117   0.31098 
H          H       0.80583   0.68790   0.31557 
H          H       0.86142   0.56550   0.64289 
H          H       0.34105   0.73697   0.64202 
H          H       0.80594   0.68798   0.70008 
H          H       0.86879   0.66310   0.83747 
H          H       0.87127   0.73117   0.70438 
C          C       0.63592   0.90430   0.69728 
H          H       0.68129   0.92114   0.70259 
H          H       0.63804   0.85585   0.69847 
H          H       0.61331   0.91868   0.83623 
C          C       0.56671   0.39814   0.31642 
H          H       0.56459   0.44659   0.31542 
H          H       0.52134   0.38130   0.31069 
H          H       0.58941   0.38380   0.17760 
H          H       0.33361   0.63948   0.17688 
H          H       0.86864   0.66309   0.17788 
C          C       0.18487   0.03269   0.00655 
C          C       0.18487   0.96979   0.00650 
C          C       0.12327   0.95178   0.00653 
C          C       0.12327   0.05070   0.00658 
C          C       0.23640   0.06479   0.00657 
C          C       0.23639   0.93769   0.00646 
C          C       0.05069   0.12327   0.00663 
C          C       0.03268   0.18486   0.00668 
C          C       0.96978   0.18486   0.00672 
C          C       0.06479   0.23639   0.00671 
C          C       0.95177   0.12327   0.00668 
C          C       0.93768   0.23639   0.00682 
C          C       0.87920   0.05069   0.00671 
C          C       0.81760   0.03267   0.00674 
C          C       0.81762   0.96977   0.00673 
C          C       0.76607   0.06475   0.00677 
C          C       0.87921   0.95177   0.00671 
C          C       0.76610   0.93764   0.00670 
C          C       0.95178   0.87921   0.00669 
C          C       0.96979   0.81762   0.00674 
C          C       0.03269   0.81761   0.00664 
C          C       0.93766   0.76610   0.00686 
C          C       0.05070   0.87920   0.00658 
C          C       0.06477   0.76607   0.00663 
C          C       0.03314   0.71219   0.00677 
C          C       0.96925   0.71220   0.00689 
C          C       0.71220   0.96922   0.00668 
C          C       0.71218   0.03311   0.00673 
C          C       0.03319   0.29028   0.00680 
C          C       0.96929   0.29029   0.00687 
C          C       0.29028   0.03318   0.00654 
C          C       0.29029   0.96929   0.00648 
C          C       0.50119   0.96932   0.00655 
C          C       0.44762   0.93730   0.00652 
C          C       0.44837   0.87540   0.00653 
C          C       0.50105   0.84346   0.00653 
C          C       0.55390   0.87552   0.00649 
C          C       0.55486   0.93721   0.00652 
C          C       0.39179   0.96936   0.00652 
C          C       0.50282   0.77583   0.00652 
C          C       0.61071   0.96928   0.00659 
C          C       0.50129   0.03304   0.00663 
C          C       0.44763   0.06516   0.00668 
C          C       0.44859   0.12684   0.00686 
C          C       0.50144   0.15890   0.00700 
C          C       0.55412   0.12696   0.00688 
C          C       0.55486   0.06506   0.00671 
C          C       0.39178   0.03309   0.00659 
C          C       0.49968   0.22653   0.00735 
C          C       0.61068   0.03301   0.00667 
C          C       0.53566   0.75432   0.81520 
C          C       0.44084   0.74857   0.00703 
H          H       0.24105   0.58702   0.87181 
C          C       0.56165   0.25380   0.00752 
C          C       0.46671   0.24796   0.19851 
H          H       0.30215   0.55797   0.00685 
C          C       0.96935   0.50120   0.00706 
C          C       0.93732   0.44762   0.00711 
C          C       0.87542   0.44838   0.00729 
C          C       0.84349   0.50107   0.00742 
C          C       0.87555   0.55391   0.00732 
C          C       0.93724   0.55486   0.00714 
C          C       0.96937   0.39179   0.00700 
C          C       0.77586   0.50283   0.00766 
C          C       0.96931   0.61071   0.00703 
C          C       0.03307   0.50129   0.00694 
C          C       0.06518   0.44762   0.00689 
C          C       0.12686   0.44858   0.00684 
C          C       0.15893   0.50142   0.00682 
C          C       0.12699   0.55411   0.00684 
C          C       0.06509   0.55486   0.00690 
C          C       0.03311   0.39177   0.00690 
C          C       0.22656   0.49965   0.00671 
C          C       0.03304   0.61068   0.00690 
C          C       0.75428   0.53579   0.81668 
C          C       0.75439   0.53582   0.19875 
C          C       0.74859   0.44086   0.00781 
C          C       0.25383   0.56162   0.00686 
C          C       0.24803   0.46673   0.81551 
C          C       0.24810   0.46663   0.19761 
N          N       0.08785   0.00124   0.00657 
N          N       0.10674   0.10674   0.00661 
N          N       0.00123   0.08785   0.00662 
N          N       0.89572   0.10674   0.00670 
N          N       0.91463   0.00124   0.00668 
N          N       0.89574   0.89573   0.00673 
N          N       0.00124   0.91463   0.00661 
N          N       0.10675   0.89573   0.00653 
N          N       0.06362   0.34169   0.00681 
N          N       0.93886   0.34169   0.00698 
N          N       0.66078   0.06353   0.00673 
N          N       0.66080   0.93877   0.00661 
N          N       0.34170   0.06361   0.00660 
N          N       0.34169   0.93885   0.00647 
N          N       0.93881   0.66080   0.00703 
N          N       0.06356   0.66078   0.00678 
Cu         Cu      0.00124   0.00124   0.00661 
H          H       0.88964   0.76554   0.00694 
H          H       0.11280   0.76547   0.00652 
H          H       0.76546   0.11278   0.00681 
H          H       0.76555   0.88961   0.00668 
H          H       0.11281   0.23696   0.00667 
H          H       0.88966   0.23698   0.00688 
H          H       0.23698   0.11282   0.00661 
H          H       0.23697   0.88966   0.00641 
H          H       0.40582   0.85326   0.00654 
H          H       0.59640   0.85314   0.00645 
H          H       0.40609   0.14923   0.00691 
H          H       0.59667   0.14910   0.00694 
H          H       0.58101   0.77119   0.80917 
H          H       0.51284   0.76870   0.67664 
H          H       0.53780   0.70587   0.81393 
H          H       0.41538   0.76133   0.87211 
H          H       0.41556   0.76137   0.14231 
H          H       0.44448   0.70024   0.00707 
H          H       0.76133   0.41547   0.87269 
H          H       0.23118   0.42137   0.80975 
H          H       0.29648   0.46460   0.81412 
H          H       0.58702   0.24108   0.87233 
H          H       0.58703   0.24093   0.14253 
H          H       0.55802   0.30212   0.00784 
H          H       0.48942   0.23352   0.33718 
H          H       0.42135   0.23109   0.20410 
H          H       0.46456   0.29641   0.20001 
H          H       0.23377   0.48932   0.33646 
H          H       0.29655   0.46446   0.19869 
H          H       0.23122   0.42128   0.20324 
H          H       0.85328   0.40583   0.00732 
H          H       0.85317   0.59641   0.00739 
H          H       0.14925   0.40607   0.00681 
H          H       0.14913   0.59665   0.00682 
H          H       0.70027   0.44450   0.00799 
H          H       0.77110   0.58117   0.81098 
H          H       0.70583   0.53790   0.81557 
H          H       0.76142   0.41550   0.14289 
H          H       0.24105   0.58697   0.14202 
H          H       0.70594   0.53798   0.20008 
H          H       0.76879   0.51310   0.33747 
H          H       0.77127   0.58117   0.20438 
C          C       0.53592   0.75430   0.19728 
H          H       0.58129   0.77114   0.20259 
H          H       0.53804   0.70585   0.19847 
H          H       0.51331   0.76868   0.33623 
C          C       0.46671   0.24814   0.81642 
H          H       0.46459   0.29659   0.81542 
H          H       0.42134   0.23130   0.81069 
H          H       0.48941   0.23380   0.67760 
H          H       0.23361   0.48948   0.67688 
H          H       0.76864   0.51309   0.67788 
