data_crystal

_cell_length_a    22.77080
_cell_length_b    22.77080
_cell_length_c    6.60000
_cell_angle_alpha 90.00000
_cell_angle_beta  90.00000
_cell_angle_gamma 90.00000

_space_group_name_Hall 'P 1'
_space_group_name_H-M_alt  'P 1'

loop_
_symmetry_equiv_pos_as_xyz
'x,y,z' 

loop_
_atom_site_label
_atom_site_type_symbol
_atom_site_fract_x
_atom_site_fract_y
_atom_site_fract_z
C          C       0.28559   0.18271   0.50587 
C          C       0.28559   0.11974   0.50617 
C          C       0.22406   0.10162   0.50627 
C          C       0.22406   0.20082   0.50594 
C          C       0.33706   0.21459   0.50547 
C          C       0.33707   0.08787   0.50632 
C          C       0.15085   0.27405   0.50606 
C          C       0.13274   0.33557   0.50633 
C          C       0.06978   0.33558   0.50659 
C          C       0.16463   0.38705   0.50645 
C          C       0.05165   0.27405   0.50639 
C          C       0.03791   0.38706   0.50713 
C          C       0.97842   0.20083   0.50652 
C          C       0.91689   0.18271   0.50649 
C          C       0.91690   0.11974   0.50683 
C          C       0.86540   0.21457   0.50601 
C          C       0.97842   0.10163   0.50689 
C          C       0.86543   0.08785   0.50696 
C          C       0.05164   0.02841   0.50691 
C          C       0.06974   0.96688   0.50707 
C          C       0.13271   0.96687   0.50672 
C          C       0.03784   0.91542   0.50758 
C          C       0.15084   0.02840   0.50651 
C          C       0.16457   0.91538   0.50666 
C          C       0.13304   0.86162   0.50714 
C          C       0.06933   0.86164   0.50774 
C          C       0.81165   0.11933   0.50654 
C          C       0.81163   0.18304   0.50586 
C          C       0.13313   0.44082   0.50698 
C          C       0.06943   0.44083   0.50745 
C          C       0.39083   0.18309   0.50539 
C          C       0.39084   0.11938   0.50601 
C          C       0.60119   0.11942   0.50576 
C          C       0.54775   0.08748   0.50622 
C          C       0.54849   0.02573   0.50714 
C          C       0.60104   0.99388   0.50771 
C          C       0.65375   0.02586   0.50746 
C          C       0.65471   0.08739   0.50646 
C          C       0.49207   0.11945   0.50571 
C          C       0.60280   0.92641   0.50862 
C          C       0.71042   0.11938   0.50606 
C          C       0.60128   0.18297   0.50429 
C          C       0.54776   0.21500   0.50339 
C          C       0.54871   0.27653   0.50119 
C          C       0.60141   0.30850   0.49986 
C          C       0.65396   0.27666   0.50125 
C          C       0.65471   0.21492   0.50349 
C          C       0.49205   0.18302   0.50459 
C          C       0.59964   0.37596   0.49681 
C          C       0.71039   0.18295   0.50485 
C          C       0.63589   0.90472   0.31831 
C          C       0.54099   0.89921   0.50815 
H          H       0.34039   0.73677   0.37154 
C          C       0.66145   0.40316   0.49567 
C          C       0.56672   0.39816   0.68676 
H          H       0.40138   0.70792   0.50670 
C          C       0.06944   0.65118   0.50913 
C          C       0.03751   0.59774   0.50982 
C          C       0.97577   0.59847   0.51183 
C          C       0.94391   0.65102   0.51314 
C          C       0.97588   0.70373   0.51190 
C          C       0.03741   0.70470   0.50988 
C          C       0.06949   0.54207   0.50860 
C          C       0.87645   0.65278   0.51595 
C          C       0.06939   0.76041   0.50872 
C          C       0.13300   0.65128   0.50802 
C          C       0.16504   0.59776   0.50768 
C          C       0.22657   0.59873   0.50732 
C          C       0.25853   0.65144   0.50720 
C          C       0.22667   0.70399   0.50723 
C          C       0.16493   0.70471   0.50764 
C          C       0.13306   0.54205   0.50777 
C          C       0.32600   0.64971   0.50724 
C          C       0.13295   0.76039   0.50778 
C          C       0.85431   0.68568   0.32588 
C          C       0.85565   0.68564   0.70793 
C          C       0.84925   0.59096   0.51705 
C          C       0.35318   0.71153   0.50678 
C          C       0.34751   0.61670   0.31652 
C          C       0.34744   0.61697   0.69862 
N          N       0.18924   0.15122   0.50614 
N          N       0.20676   0.25673   0.50590 
N          N       0.10125   0.23923   0.50613 
N          N       0.99573   0.25675   0.50646 
N          N       0.01324   0.15123   0.50668 
N          N       0.99572   0.04572   0.50705 
N          N       0.10124   0.06322   0.50658 
N          N       0.20675   0.04570   0.50639 
N          N       0.16350   0.49209   0.50706 
N          N       0.03906   0.49209   0.50832 
N          N       0.76036   0.21339   0.50493 
N          N       0.76038   0.08896   0.50675 
N          N       0.44210   0.21345   0.50461 
N          N       0.44210   0.08902   0.50627 
N          N       0.03895   0.81037   0.50858 
N          N       0.16339   0.81036   0.50708 
Zn         Zn      0.10125   0.15123   0.50630 
H          H       0.98994   0.91483   0.50795 
H          H       0.21247   0.91474   0.50629 
H          H       0.86476   0.26248   0.50562 
H          H       0.86483   0.03994   0.50733 
H          H       0.21254   0.38765   0.50621 
H          H       0.99000   0.38770   0.50743 
H          H       0.33767   0.26250   0.50510 
H          H       0.33770   0.03996   0.50665 
H          H       0.50606   0.00366   0.50737 
H          H       0.69615   0.00353   0.50797 
H          H       0.50631   0.29884   0.50042 
H          H       0.69640   0.29874   0.50052 
H          H       0.68114   0.92155   0.31290 
H          H       0.61337   0.91887   0.17907 
H          H       0.63805   0.85640   0.31786 
H          H       0.51580   0.91186   0.37265 
H          H       0.51554   0.91204   0.64285 
H          H       0.54462   0.85101   0.50859 
H          H       0.86154   0.56565   0.38145 
H          H       0.33068   0.57146   0.31106 
H          H       0.39584   0.61455   0.31552 
H          H       0.68678   0.38989   0.36120 
H          H       0.68675   0.39093   0.63138 
H          H       0.65782   0.45136   0.49345 
H          H       0.58935   0.38436   0.82622 
H          H       0.52147   0.38138   0.69310 
H          H       0.56459   0.44649   0.68572 
H          H       0.33304   0.63973   0.83712 
H          H       0.39576   0.61487   0.70002 
H          H       0.33065   0.57172   0.70465 
H          H       0.95370   0.55603   0.51246 
H          H       0.95355   0.74613   0.51261 
H          H       0.24890   0.55634   0.50723 
H          H       0.24874   0.74643   0.50705 
H          H       0.80105   0.59459   0.51899 
H          H       0.87109   0.73093   0.31958 
H          H       0.80598   0.68780   0.32666 
H          H       0.86245   0.56565   0.65163 
H          H       0.34045   0.73691   0.64175 
H          H       0.80734   0.68782   0.71110 
H          H       0.87044   0.66294   0.84605 
H          H       0.87253   0.73087   0.71307 
C          C       0.63547   0.90517   0.70039 
H          H       0.68070   0.92202   0.70649 
H          H       0.63763   0.85684   0.70225 
H          H       0.61264   0.91964   0.83864 
C          C       0.56679   0.39669   0.30472 
H          H       0.56463   0.44500   0.30134 
H          H       0.52156   0.37982   0.29963 
H          H       0.58950   0.38184   0.16669 
H          H       0.33323   0.63929   0.17756 
H          H       0.86817   0.66305   0.18651 
C          C       0.18559   0.03271   0.00587 
C          C       0.18559   0.96974   0.00617 
C          C       0.12406   0.95162   0.00627 
C          C       0.12406   0.05082   0.00594 
C          C       0.23706   0.06459   0.00547 
C          C       0.23707   0.93787   0.00632 
C          C       0.05085   0.12405   0.00606 
C          C       0.03274   0.18557   0.00633 
C          C       0.96978   0.18558   0.00659 
C          C       0.06463   0.23705   0.00645 
C          C       0.95165   0.12405   0.00639 
C          C       0.93791   0.23706   0.00713 
C          C       0.87842   0.05083   0.00652 
C          C       0.81689   0.03271   0.00649 
C          C       0.81690   0.96974   0.00683 
C          C       0.76540   0.06457   0.00601 
C          C       0.87842   0.95163   0.00689 
C          C       0.76543   0.93785   0.00696 
C          C       0.95164   0.87841   0.00691 
C          C       0.96974   0.81688   0.00707 
C          C       0.03271   0.81687   0.00672 
C          C       0.93784   0.76542   0.00758 
C          C       0.05084   0.87840   0.00651 
C          C       0.06457   0.76538   0.00666 
C          C       0.03304   0.71162   0.00714 
C          C       0.96933   0.71164   0.00774 
C          C       0.71165   0.96933   0.00654 
C          C       0.71163   0.03304   0.00586 
C          C       0.03313   0.29082   0.00698 
C          C       0.96943   0.29083   0.00745 
C          C       0.29083   0.03309   0.00539 
C          C       0.29084   0.96938   0.00601 
C          C       0.50119   0.96942   0.00576 
C          C       0.44775   0.93748   0.00622 
C          C       0.44849   0.87573   0.00714 
C          C       0.50104   0.84388   0.00771 
C          C       0.55375   0.87586   0.00746 
C          C       0.55471   0.93739   0.00646 
C          C       0.39207   0.96945   0.00571 
C          C       0.50280   0.77641   0.00862 
C          C       0.61042   0.96938   0.00606 
C          C       0.50128   0.03297   0.00429 
C          C       0.44776   0.06500   0.00339 
C          C       0.44871   0.12653   0.00119 
C          C       0.50141   0.15850   0.99986 
C          C       0.55396   0.12666   0.00125 
C          C       0.55471   0.06492   0.00349 
C          C       0.39205   0.03302   0.00459 
C          C       0.49964   0.22596   0.99681 
C          C       0.61039   0.03295   0.00485 
C          C       0.53589   0.75472   0.81831 
C          C       0.44099   0.74921   0.00815 
H          H       0.24039   0.58677   0.87154 
C          C       0.56145   0.25316   0.99567 
C          C       0.46672   0.24816   0.18676 
H          H       0.30138   0.55792   0.00670 
C          C       0.96944   0.50118   0.00913 
C          C       0.93751   0.44774   0.00982 
C          C       0.87577   0.44847   0.01183 
C          C       0.84391   0.50102   0.01314 
C          C       0.87588   0.55373   0.01190 
C          C       0.93741   0.55470   0.00988 
C          C       0.96949   0.39207   0.00860 
C          C       0.77645   0.50278   0.01595 
C          C       0.96939   0.61041   0.00872 
C          C       0.03300   0.50128   0.00802 
C          C       0.06504   0.44776   0.00768 
C          C       0.12657   0.44873   0.00732 
C          C       0.15853   0.50144   0.00720 
C          C       0.12667   0.55399   0.00723 
C          C       0.06493   0.55471   0.00764 
C          C       0.03306   0.39205   0.00777 
C          C       0.22600   0.49971   0.00724 
C          C       0.03295   0.61039   0.00778 
C          C       0.75431   0.53568   0.82588 
C          C       0.75565   0.53564   0.20793 
C          C       0.74925   0.44096   0.01705 
C          C       0.25318   0.56153   0.00678 
C          C       0.24751   0.46670   0.81652 
C          C       0.24744   0.46697   0.19862 
N          N       0.08924   0.00122   0.00614 
N          N       0.10676   0.10673   0.00590 
N          N       0.00125   0.08923   0.00613 
N          N       0.89573   0.10675   0.00646 
N          N       0.91324   0.00123   0.00668 
N          N       0.89572   0.89572   0.00705 
N          N       0.00124   0.91322   0.00658 
N          N       0.10675   0.89570   0.00639 
N          N       0.06350   0.34209   0.00706 
N          N       0.93906   0.34209   0.00832 
N          N       0.66036   0.06339   0.00493 
N          N       0.66038   0.93896   0.00675 
N          N       0.34210   0.06345   0.00461 
N          N       0.34210   0.93902   0.00627 
N          N       0.93895   0.66037   0.00858 
N          N       0.06339   0.66036   0.00708 
Zn         Zn      0.00125   0.00123   0.00630 
H          H       0.88994   0.76483   0.00795 
H          H       0.11247   0.76474   0.00629 
H          H       0.76476   0.11248   0.00562 
H          H       0.76483   0.88994   0.00733 
H          H       0.11254   0.23765   0.00621 
H          H       0.89000   0.23770   0.00743 
H          H       0.23767   0.11250   0.00510 
H          H       0.23770   0.88996   0.00665 
H          H       0.40606   0.85366   0.00737 
H          H       0.59615   0.85353   0.00797 
H          H       0.40631   0.14884   0.00042 
H          H       0.59640   0.14874   0.00052 
H          H       0.58114   0.77155   0.81290 
H          H       0.51337   0.76887   0.67907 
H          H       0.53805   0.70640   0.81786 
H          H       0.41580   0.76186   0.87265 
H          H       0.41554   0.76204   0.14285 
H          H       0.44462   0.70101   0.00859 
H          H       0.76154   0.41565   0.88145 
H          H       0.23068   0.42146   0.81106 
H          H       0.29584   0.46455   0.81552 
H          H       0.58678   0.23989   0.86120 
H          H       0.58675   0.24093   0.13138 
H          H       0.55782   0.30136   0.99345 
H          H       0.48935   0.23436   0.32622 
H          H       0.42147   0.23138   0.19310 
H          H       0.46459   0.29649   0.18572 
H          H       0.23304   0.48973   0.33712 
H          H       0.29576   0.46487   0.20002 
H          H       0.23065   0.42172   0.20465 
H          H       0.85370   0.40603   0.01246 
H          H       0.85355   0.59613   0.01261 
H          H       0.14890   0.40634   0.00723 
H          H       0.14874   0.59643   0.00705 
H          H       0.70105   0.44459   0.01899 
H          H       0.77109   0.58093   0.81958 
H          H       0.70598   0.53780   0.82666 
H          H       0.76245   0.41565   0.15163 
H          H       0.24045   0.58691   0.14175 
H          H       0.70734   0.53782   0.21110 
H          H       0.77044   0.51294   0.34605 
H          H       0.77253   0.58087   0.21307 
C          C       0.53547   0.75517   0.20039 
H          H       0.58070   0.77202   0.20649 
H          H       0.53763   0.70684   0.20225 
H          H       0.51264   0.76964   0.33864 
C          C       0.46679   0.24669   0.80472 
H          H       0.46463   0.29500   0.80134 
H          H       0.42156   0.22982   0.79963 
H          H       0.48950   0.23184   0.66669 
H          H       0.23323   0.48929   0.67756 
H          H       0.76817   0.51305   0.68651 
