data_crystal

_cell_length_a    52.43830
_cell_length_b    52.43830
_cell_length_c    7.16300
_cell_angle_alpha 90.00000
_cell_angle_beta  90.00000
_cell_angle_gamma 120.00000

_space_group_name_Hall 'P 1'
_space_group_name_H-M_alt  'P 1'

loop_
_symmetry_equiv_pos_as_xyz
'x,y,z' 

loop_
_atom_site_label
_atom_site_type_symbol
_atom_site_fract_x
_atom_site_fract_y
_atom_site_fract_z
C          C       0.31649   0.14449   0.49623 
C          C       0.85551   0.17200   0.49623 
C          C       0.82800   0.68351   0.49623 
C          C       0.34697   0.15732   0.04303 
C          C       0.84268   0.18965   0.04303 
C          C       0.81035   0.65303   0.04303 
C          C       0.36411   0.18763   0.09645 
C          C       0.81237   0.17648   0.09645 
C          C       0.82352   0.63589   0.09645 
C          C       0.34913   0.20407   0.10107 
C          C       0.79593   0.14506   0.10107 
C          C       0.85494   0.65087   0.10107 
C          C       0.31961   0.19171   0.05247 
C          C       0.80829   0.12790   0.05247 
C          C       0.87210   0.68039   0.05247 
C          C       0.30204   0.16154   0.49934 
C          C       0.83846   0.14050   0.49934 
C          C       0.85950   0.69796   0.49934 
N          N       0.35995   0.23255   0.15655 
N          N       0.76745   0.12740   0.15655 
N          N       0.87260   0.64005   0.15655 
C          C       0.33610   0.23653   0.13517 
C          C       0.76347   0.09957   0.13517 
C          C       0.90043   0.66390   0.13517 
N          N       0.31092   0.21211   0.07260 
N          N       0.78789   0.09881   0.07260 
N          N       0.90119   0.68908   0.07260 
C          C       0.26964   0.14724   0.45384 
C          C       0.85276   0.12240   0.45384 
C          C       0.87760   0.73036   0.45384 
C          C       0.39640   0.20074   0.14164 
C          C       0.79926   0.19566   0.14164 
C          C       0.80434   0.60360   0.14164 
C          C       0.25516   0.16408   0.44177 
C          C       0.83592   0.09108   0.44177 
C          C       0.90892   0.74484   0.44177 
C          C       0.22454   0.15028   0.40398 
C          C       0.84972   0.07426   0.40398 
C          C       0.92574   0.77546   0.40398 
C          C       0.20788   0.11936   0.37737 
C          C       0.88064   0.08852   0.37737 
C          C       0.91148   0.79212   0.37737 
C          C       0.22209   0.10232   0.38755 
C          C       0.89768   0.11977   0.38755 
C          C       0.88023   0.77791   0.38755 
C          C       0.25272   0.11618   0.42512 
C          C       0.88382   0.13654   0.42512 
C          C       0.86346   0.74728   0.42512 
C          C       0.40905   0.18222   0.15462 
C          C       0.81778   0.22683   0.15462 
C          C       0.77317   0.59095   0.15462 
C          C       0.43957   0.19434   0.19052 
C          C       0.80566   0.24523   0.19052 
C          C       0.75477   0.56043   0.19052 
C          C       0.45793   0.22517   0.21397 
C          C       0.77483   0.23276   0.21397 
C          C       0.76724   0.54207   0.21397 
C          C       0.44555   0.24385   0.20216 
C          C       0.75615   0.20170   0.20216 
C          C       0.79830   0.55445   0.20216 
C          C       0.41503   0.23169   0.16637 
C          C       0.76831   0.18334   0.16637 
C          C       0.81666   0.58497   0.16637 
C          C       0.17561   0.10527   0.34485 
C          C       0.89473   0.07034   0.34485 
C          C       0.92966   0.82439   0.34485 
C          C       0.49003   0.23741   0.24501 
C          C       0.76259   0.25262   0.24501 
C          C       0.74738   0.50997   0.24501 
N          N       0.15910   0.07658   0.32348 
N          N       0.92342   0.08252   0.32348 
N          N       0.91748   0.84090   0.32348 
N          N       0.50806   0.26592   0.26411 
N          N       0.73408   0.24214   0.26411 
N          N       0.75786   0.49194   0.26411 
C          C       0.12739   0.06188   0.29698 
C          C       0.93812   0.06551   0.29698 
C          C       0.93449   0.87261   0.29698 
C          C       0.53965   0.27880   0.28929 
C          C       0.72120   0.26085   0.28929 
C          C       0.73915   0.46035   0.28929 
C          C       0.11203   0.07791   0.29134 
C          C       0.92209   0.03412   0.29134 
C          C       0.96588   0.88797   0.29134 
C          C       0.08092   0.06279   0.27387 
C          C       0.93721   0.01813   0.27387 
C          C       0.98187   0.91908   0.27387 
C          C       0.06462   0.03145   0.26192 
C          C       0.96855   0.03317   0.26192 
C          C       0.96683   0.93538   0.26192 
C          C       0.08016   0.01559   0.26580 
C          C       0.98441   0.06457   0.26580 
C          C       0.93543   0.91984   0.26580 
C          C       0.11129   0.03070   0.28312 
C          C       0.96930   0.08059   0.28312 
C          C       0.91941   0.88871   0.28312 
C          C       0.55321   0.26105   0.29534 
C          C       0.73895   0.29216   0.29534 
C          C       0.70784   0.44679   0.29534 
C          C       0.58423   0.27438   0.31189 
C          C       0.72562   0.30985   0.31189 
C          C       0.69015   0.41577   0.31189 
C          C       0.60225   0.30562   0.32255 
C          C       0.69438   0.29663   0.32255 
C          C       0.70337   0.39775   0.32255 
C          C       0.58851   0.32321   0.31818 
C          C       0.67679   0.26530   0.31818 
C          C       0.73470   0.41149   0.31818 
C          C       0.55747   0.30989   0.30174 
C          C       0.69011   0.24758   0.30174 
C          C       0.75242   0.44253   0.30174 
C          C       0.03154   0.01535   0.25259 
C          C       0.98465   0.01619   0.25259 
C          C       0.98381   0.96846   0.25259 
C          C       0.63523   0.31981   0.33141 
C          C       0.68019   0.31542   0.33141 
C          C       0.68458   0.36477   0.33141 
C          C       0.01600   0.03117   0.25285 
C          C       0.96883   0.98483   0.25285 
C          C       0.01517   0.98400   0.25285 
C          C       0.64896   0.30226   0.33115 
C          C       0.69774   0.34670   0.33115 
C          C       0.65330   0.35104   0.33115 
N          N       0.33697   0.26357   0.19084 
N          N       0.73643   0.07340   0.19084 
N          N       0.92660   0.66303   0.19084 
C          C       0.31817   0.27454   0.10830 
C          C       0.72546   0.04363   0.10830 
C          C       0.95637   0.68183   0.10830 
C          C       0.33782   0.30836   0.06918 
C          C       0.69164   0.02946   0.06918 
C          C       0.97054   0.66218   0.06918 
C          C       0.28761   0.26428   0.21506 
C          C       0.73572   0.02333   0.21506 
C          C       0.97667   0.71239   0.21506 
C          C       0.28945   0.29096   0.31851 
C          C       0.70904   0.99849   0.31851 
C          C       0.00151   0.71055   0.31851 
C          C       0.25845   0.25387   0.11030 
C          C       0.74613   0.00458   0.11030 
C          C       0.99542   0.74155   0.11030 
C          C       0.27981   0.23573   0.32174 
C          C       0.76427   0.04408   0.32174 
C          C       0.95592   0.72019   0.32174 
O          O       0.36163   0.32249   0.19607 
O          O       0.67751   0.03914   0.19607 
O          O       0.96086   0.63837   0.19607 
H          H       0.30322   0.12025   0.45546 
H          H       0.87975   0.18297   0.45546 
H          H       0.81703   0.69678   0.45546 
H          H       0.35807   0.14337   0.03820 
H          H       0.85663   0.21470   0.03820 
H          H       0.78530   0.64193   0.03820 
H          H       0.38318   0.24585   0.20336 
H          H       0.75415   0.13733   0.20336 
H          H       0.86267   0.61682   0.20336 
H          H       0.26822   0.18897   0.46258 
H          H       0.81103   0.07925   0.46258 
H          H       0.92075   0.73178   0.46258 
H          H       0.21328   0.16405   0.39497 
H          H       0.83595   0.04923   0.39497 
H          H       0.95077   0.78672   0.39497 
H          H       0.20885   0.07746   0.36548 
H          H       0.92254   0.13139   0.36548 
H          H       0.86861   0.79115   0.36548 
H          H       0.26408   0.10249   0.43264 
H          H       0.89751   0.16159   0.43264 
H          H       0.83841   0.73592   0.43264 
H          H       0.39460   0.15739   0.13606 
H          H       0.84261   0.23721   0.13606 
H          H       0.76279   0.60540   0.13606 
H          H       0.44939   0.17928   0.20057 
H          H       0.82072   0.27011   0.20057 
H          H       0.72989   0.55061   0.20057 
H          H       0.46017   0.26865   0.22146 
H          H       0.73135   0.19152   0.22146 
H          H       0.80848   0.53983   0.22146 
H          H       0.40515   0.24671   0.15710 
H          H       0.75329   0.15844   0.15710 
H          H       0.84156   0.59485   0.15710 
H          H       0.16469   0.11938   0.33800 
H          H       0.88062   0.04531   0.33800 
H          H       0.95469   0.83531   0.33800 
H          H       0.49948   0.22201   0.25266 
H          H       0.77799   0.27747   0.25266 
H          H       0.72253   0.50052   0.25266 
H          H       0.12476   0.10298   0.30089 
H          H       0.89702   0.02178   0.30089 
H          H       0.97822   0.87524   0.30089 
H          H       0.06873   0.07571   0.26930 
H          H       0.92429   0.99302   0.26930 
H          H       0.00698   0.93127   0.26930 
H          H       0.06757   0.99053   0.25494 
H          H       0.00947   0.07704   0.25494 
H          H       0.92296   0.93243   0.25494 
H          H       0.12349   0.01779   0.28594 
H          H       0.98221   0.10570   0.28594 
H          H       0.89430   0.87651   0.28594 
H          H       0.53909   0.23604   0.28685 
H          H       0.76396   0.30305   0.28685 
H          H       0.69695   0.46091   0.28685 
H          H       0.59497   0.26010   0.31678 
H          H       0.73990   0.33487   0.31678 
H          H       0.66513   0.40503   0.31678 
H          H       0.60249   0.34822   0.32793 
H          H       0.65178   0.25427   0.32793 
H          H       0.74573   0.39751   0.32793 
H          H       0.54672   0.32417   0.29849 
H          H       0.67583   0.22255   0.29849 
H          H       0.77745   0.45328   0.29849 
H          H       0.02867   0.05629   0.25329 
H          H       0.94371   0.97238   0.25329 
H          H       0.02762   0.97133   0.25329 
H          H       0.63490   0.27720   0.33074 
H          H       0.72280   0.35770   0.33074 
H          H       0.64230   0.36510   0.33074 
H          H       0.35243   0.27761   0.30203 
H          H       0.72239   0.07482   0.30203 
H          H       0.92518   0.64757   0.30203 
H          H       0.31166   0.26384   0.46413 
H          H       0.73616   0.04782   0.46413 
H          H       0.95218   0.68834   0.46413 
H          H       0.32356   0.31908   0.07954 
H          H       0.68092   0.00448   0.07954 
H          H       0.99552   0.67644   0.07954 
H          H       0.34736   0.31184   0.42185 
H          H       0.68816   0.03552   0.42185 
H          H       0.96448   0.65264   0.42185 
H          H       0.30140   0.31142   0.22676 
H          H       0.68858   0.98998   0.22676 
H          H       0.01002   0.69860   0.22676 
H          H       0.30205   0.29467   0.45528 
H          H       0.70533   0.00738   0.45528 
H          H       0.99262   0.69795   0.45528 
H          H       0.26626   0.28654   0.35001 
H          H       0.71346   0.97972   0.35001 
H          H       0.02028   0.73374   0.35001 
H          H       0.24567   0.22877   0.10454 
H          H       0.77123   0.01690   0.10454 
H          H       0.98310   0.75433   0.10454 
H          H       0.26324   0.26309   0.46183 
H          H       0.73691   0.00015   0.46183 
H          H       0.99985   0.73676   0.46183 
H          H       0.24479   0.26203   0.18677 
H          H       0.73797   0.98276   0.18677 
H          H       0.01724   0.75521   0.18677 
H          H       0.29976   0.23905   0.40540 
H          H       0.76095   0.06071   0.40540 
H          H       0.93929   0.70024   0.40540 
H          H       0.27321   0.21698   0.21757 
H          H       0.78302   0.05623   0.21757 
H          H       0.94377   0.72679   0.21757 
H          H       0.26068   0.23006   0.42117 
H          H       0.76994   0.03062   0.42117 
H          H       0.96938   0.73932   0.42117 
H          H       0.35502   0.33150   0.31534 
H          H       0.66850   0.02352   0.31534 
H          H       0.97648   0.64498   0.31534 
C          C       0.31649   0.14449   0.99623 
C          C       0.85551   0.17200   0.99623 
C          C       0.82800   0.68351   0.99623 
C          C       0.34697   0.15732   0.54302 
C          C       0.84268   0.18965   0.54302 
C          C       0.81035   0.65303   0.54302 
C          C       0.36411   0.18763   0.59645 
C          C       0.81237   0.17648   0.59645 
C          C       0.82352   0.63589   0.59645 
C          C       0.34913   0.20407   0.60107 
C          C       0.79593   0.14506   0.60107 
C          C       0.85494   0.65087   0.60107 
C          C       0.31961   0.19171   0.55247 
C          C       0.80829   0.12790   0.55247 
C          C       0.87210   0.68039   0.55247 
C          C       0.30204   0.16154   0.99934 
C          C       0.83846   0.14050   0.99934 
C          C       0.85950   0.69796   0.99934 
N          N       0.35995   0.23255   0.65655 
N          N       0.76745   0.12740   0.65655 
N          N       0.87260   0.64005   0.65655 
C          C       0.33610   0.23653   0.63517 
C          C       0.76347   0.09957   0.63517 
C          C       0.90043   0.66390   0.63517 
N          N       0.31092   0.21211   0.57259 
N          N       0.78789   0.09881   0.57259 
N          N       0.90119   0.68908   0.57259 
C          C       0.26964   0.14724   0.95384 
C          C       0.85276   0.12240   0.95384 
C          C       0.87760   0.73036   0.95384 
C          C       0.39640   0.20074   0.64164 
C          C       0.79926   0.19566   0.64164 
C          C       0.80434   0.60360   0.64164 
C          C       0.25516   0.16408   0.94176 
C          C       0.83592   0.09108   0.94176 
C          C       0.90892   0.74484   0.94176 
C          C       0.22454   0.15028   0.90398 
C          C       0.84972   0.07426   0.90398 
C          C       0.92574   0.77546   0.90398 
C          C       0.20788   0.11936   0.87737 
C          C       0.88064   0.08852   0.87737 
C          C       0.91148   0.79212   0.87737 
C          C       0.22209   0.10232   0.88755 
C          C       0.89768   0.11977   0.88755 
C          C       0.88023   0.77791   0.88755 
C          C       0.25272   0.11618   0.92512 
C          C       0.88382   0.13654   0.92512 
C          C       0.86346   0.74728   0.92512 
C          C       0.40905   0.18222   0.65461 
C          C       0.81778   0.22683   0.65461 
C          C       0.77317   0.59095   0.65461 
C          C       0.43957   0.19434   0.69052 
C          C       0.80566   0.24523   0.69052 
C          C       0.75477   0.56043   0.69052 
C          C       0.45793   0.22517   0.71397 
C          C       0.77483   0.23276   0.71397 
C          C       0.76724   0.54207   0.71397 
C          C       0.44555   0.24385   0.70215 
C          C       0.75615   0.20170   0.70215 
C          C       0.79830   0.55445   0.70215 
C          C       0.41503   0.23169   0.66637 
C          C       0.76831   0.18334   0.66637 
C          C       0.81666   0.58497   0.66637 
C          C       0.17561   0.10527   0.84485 
C          C       0.89473   0.07034   0.84485 
C          C       0.92966   0.82439   0.84485 
C          C       0.49003   0.23741   0.74501 
C          C       0.76259   0.25262   0.74501 
C          C       0.74738   0.50997   0.74501 
N          N       0.15910   0.07658   0.82348 
N          N       0.92342   0.08252   0.82348 
N          N       0.91748   0.84090   0.82348 
N          N       0.50806   0.26592   0.76411 
N          N       0.73408   0.24214   0.76411 
N          N       0.75786   0.49194   0.76411 
C          C       0.12739   0.06188   0.79698 
C          C       0.93812   0.06551   0.79698 
C          C       0.93449   0.87261   0.79698 
C          C       0.53965   0.27880   0.78929 
C          C       0.72120   0.26085   0.78929 
C          C       0.73915   0.46035   0.78929 
C          C       0.11203   0.07791   0.79134 
C          C       0.92209   0.03412   0.79134 
C          C       0.96588   0.88797   0.79134 
C          C       0.08092   0.06279   0.77387 
C          C       0.93721   0.01813   0.77387 
C          C       0.98187   0.91908   0.77387 
C          C       0.06462   0.03145   0.76192 
C          C       0.96855   0.03317   0.76192 
C          C       0.96683   0.93538   0.76192 
C          C       0.08016   0.01559   0.76580 
C          C       0.98441   0.06457   0.76580 
C          C       0.93543   0.91984   0.76580 
C          C       0.11129   0.03070   0.78312 
C          C       0.96930   0.08059   0.78312 
C          C       0.91941   0.88871   0.78312 
C          C       0.55321   0.26105   0.79534 
C          C       0.73895   0.29216   0.79534 
C          C       0.70784   0.44679   0.79534 
C          C       0.58423   0.27438   0.81189 
C          C       0.72562   0.30985   0.81189 
C          C       0.69015   0.41577   0.81189 
C          C       0.60225   0.30562   0.82255 
C          C       0.69438   0.29663   0.82255 
C          C       0.70337   0.39775   0.82255 
C          C       0.58851   0.32321   0.81818 
C          C       0.67679   0.26530   0.81818 
C          C       0.73470   0.41149   0.81818 
C          C       0.55747   0.30989   0.80174 
C          C       0.69011   0.24758   0.80174 
C          C       0.75242   0.44253   0.80174 
C          C       0.03154   0.01535   0.75259 
C          C       0.98465   0.01619   0.75259 
C          C       0.98381   0.96846   0.75259 
C          C       0.63523   0.31981   0.83141 
C          C       0.68019   0.31542   0.83141 
C          C       0.68458   0.36477   0.83141 
C          C       0.01600   0.03117   0.75286 
C          C       0.96883   0.98483   0.75286 
C          C       0.01517   0.98400   0.75286 
C          C       0.64896   0.30226   0.83115 
C          C       0.69774   0.34670   0.83115 
C          C       0.65330   0.35104   0.83115 
N          N       0.33697   0.26357   0.69084 
N          N       0.73643   0.07340   0.69084 
N          N       0.92660   0.66303   0.69084 
C          C       0.31817   0.27454   0.60830 
C          C       0.72546   0.04363   0.60830 
C          C       0.95637   0.68183   0.60830 
C          C       0.33782   0.30836   0.56918 
C          C       0.69164   0.02946   0.56918 
C          C       0.97054   0.66218   0.56918 
C          C       0.28761   0.26428   0.71506 
C          C       0.73572   0.02333   0.71506 
C          C       0.97667   0.71239   0.71506 
C          C       0.28945   0.29096   0.81851 
C          C       0.70904   0.99849   0.81851 
C          C       0.00151   0.71055   0.81851 
C          C       0.25845   0.25387   0.61029 
C          C       0.74613   0.00458   0.61029 
C          C       0.99542   0.74155   0.61029 
C          C       0.27981   0.23573   0.82174 
C          C       0.76427   0.04408   0.82174 
C          C       0.95592   0.72019   0.82174 
O          O       0.36163   0.32249   0.69607 
O          O       0.67751   0.03914   0.69607 
O          O       0.96086   0.63837   0.69607 
H          H       0.30322   0.12025   0.95546 
H          H       0.87975   0.18297   0.95546 
H          H       0.81703   0.69678   0.95546 
H          H       0.35807   0.14337   0.53820 
H          H       0.85663   0.21470   0.53820 
H          H       0.78530   0.64193   0.53820 
H          H       0.38318   0.24585   0.70337 
H          H       0.75415   0.13733   0.70337 
H          H       0.86267   0.61682   0.70337 
H          H       0.26822   0.18897   0.96258 
H          H       0.81103   0.07925   0.96258 
H          H       0.92075   0.73178   0.96258 
H          H       0.21328   0.16405   0.89497 
H          H       0.83595   0.04923   0.89497 
H          H       0.95077   0.78672   0.89497 
H          H       0.20885   0.07746   0.86548 
H          H       0.92254   0.13139   0.86548 
H          H       0.86861   0.79115   0.86548 
H          H       0.26408   0.10249   0.93264 
H          H       0.89751   0.16159   0.93264 
H          H       0.83841   0.73592   0.93264 
H          H       0.39460   0.15739   0.63606 
H          H       0.84261   0.23721   0.63606 
H          H       0.76279   0.60540   0.63606 
H          H       0.44939   0.17928   0.70058 
H          H       0.82072   0.27011   0.70058 
H          H       0.72989   0.55061   0.70058 
H          H       0.46017   0.26865   0.72146 
H          H       0.73135   0.19152   0.72146 
H          H       0.80848   0.53983   0.72146 
H          H       0.40515   0.24671   0.65709 
H          H       0.75329   0.15844   0.65709 
H          H       0.84156   0.59485   0.65709 
H          H       0.16469   0.11938   0.83800 
H          H       0.88062   0.04531   0.83800 
H          H       0.95469   0.83531   0.83800 
H          H       0.49948   0.22201   0.75267 
H          H       0.77799   0.27747   0.75267 
H          H       0.72253   0.50052   0.75267 
H          H       0.12476   0.10298   0.80088 
H          H       0.89702   0.02178   0.80088 
H          H       0.97822   0.87524   0.80088 
H          H       0.06873   0.07571   0.76929 
H          H       0.92429   0.99302   0.76929 
H          H       0.00698   0.93127   0.76929 
H          H       0.06757   0.99053   0.75494 
H          H       0.00947   0.07704   0.75494 
H          H       0.92296   0.93243   0.75494 
H          H       0.12349   0.01779   0.78594 
H          H       0.98221   0.10570   0.78594 
H          H       0.89430   0.87651   0.78594 
H          H       0.53909   0.23604   0.78685 
H          H       0.76396   0.30305   0.78685 
H          H       0.69695   0.46091   0.78685 
H          H       0.59497   0.26010   0.81678 
H          H       0.73990   0.33487   0.81678 
H          H       0.66513   0.40503   0.81678 
H          H       0.60249   0.34822   0.82793 
H          H       0.65178   0.25427   0.82793 
H          H       0.74573   0.39751   0.82793 
H          H       0.54672   0.32417   0.79849 
H          H       0.67583   0.22255   0.79849 
H          H       0.77745   0.45328   0.79849 
H          H       0.02867   0.05629   0.75330 
H          H       0.94371   0.97238   0.75330 
H          H       0.02762   0.97133   0.75330 
H          H       0.63490   0.27720   0.83074 
H          H       0.72280   0.35770   0.83074 
H          H       0.64230   0.36510   0.83074 
H          H       0.35243   0.27761   0.80203 
H          H       0.72239   0.07482   0.80203 
H          H       0.92518   0.64757   0.80203 
H          H       0.31166   0.26384   0.96413 
H          H       0.73616   0.04782   0.96413 
H          H       0.95218   0.68834   0.96413 
H          H       0.32356   0.31908   0.57954 
H          H       0.68092   0.00448   0.57954 
H          H       0.99552   0.67644   0.57954 
H          H       0.34736   0.31184   0.92185 
H          H       0.68816   0.03552   0.92185 
H          H       0.96448   0.65264   0.92185 
H          H       0.30140   0.31142   0.72676 
H          H       0.68858   0.98998   0.72676 
H          H       0.01002   0.69860   0.72676 
H          H       0.30205   0.29467   0.95528 
H          H       0.70533   0.00738   0.95528 
H          H       0.99262   0.69795   0.95528 
H          H       0.26626   0.28654   0.85001 
H          H       0.71346   0.97972   0.85001 
H          H       0.02028   0.73374   0.85001 
H          H       0.24567   0.22877   0.60454 
H          H       0.77123   0.01690   0.60454 
H          H       0.98310   0.75433   0.60454 
H          H       0.26324   0.26309   0.96183 
H          H       0.73691   0.00015   0.96183 
H          H       0.99985   0.73676   0.96183 
H          H       0.24479   0.26203   0.68677 
H          H       0.73797   0.98276   0.68677 
H          H       0.01724   0.75521   0.68677 
H          H       0.29976   0.23905   0.90541 
H          H       0.76095   0.06071   0.90541 
H          H       0.93929   0.70024   0.90541 
H          H       0.27321   0.21698   0.71757 
H          H       0.78302   0.05623   0.71757 
H          H       0.94377   0.72679   0.71757 
H          H       0.26068   0.23006   0.92117 
H          H       0.76994   0.03062   0.92117 
H          H       0.96938   0.73932   0.92117 
H          H       0.35502   0.33150   0.81534 
H          H       0.66850   0.02352   0.81534 
H          H       0.97648   0.64498   0.81534 
