data_crystal

_cell_length_a    52.03360
_cell_length_b    52.03360
_cell_length_c    8.07460
_cell_angle_alpha 90.00000
_cell_angle_beta  90.00000
_cell_angle_gamma 120.00000

_space_group_name_Hall 'P 1'
_space_group_name_H-M_alt  'P 1'

loop_
_symmetry_equiv_pos_as_xyz
'x,y,z' 

loop_
_atom_site_label
_atom_site_type_symbol
_atom_site_fract_x
_atom_site_fract_y
_atom_site_fract_z
C          C       0.31652   0.13942   0.19068 
C          C       0.86058   0.17710   0.19068 
C          C       0.82290   0.68348   0.19068 
C          C       0.34643   0.15166   0.24112 
C          C       0.84834   0.19477   0.24112 
C          C       0.80523   0.65357   0.24112 
C          C       0.36245   0.18079   0.30631 
C          C       0.81921   0.18166   0.30631 
C          C       0.81834   0.63755   0.30631 
C          C       0.34700   0.19646   0.32131 
C          C       0.80354   0.15054   0.32131 
C          C       0.84946   0.65300   0.32131 
C          C       0.31813   0.18479   0.26946 
C          C       0.81521   0.13334   0.26946 
C          C       0.86666   0.68187   0.26946 
C          C       0.30162   0.15591   0.20414 
C          C       0.84409   0.14571   0.20414 
C          C       0.85429   0.69838   0.20414 
C          C       0.26968   0.14252   0.15710 
C          C       0.85748   0.12716   0.15710 
C          C       0.87284   0.73032   0.15710 
C          C       0.39446   0.19426   0.34802 
C          C       0.80574   0.20020   0.34802 
C          C       0.79980   0.60554   0.34802 
C          C       0.25886   0.15976   0.08232 
C          C       0.84024   0.09910   0.08232 
C          C       0.90090   0.74114   0.08232 
C          C       0.22872   0.14724   0.04308 
C          C       0.85276   0.08148   0.04308 
C          C       0.91852   0.77128   0.04308 
C          C       0.20876   0.11717   0.07594 
C          C       0.88283   0.09159   0.07594 
C          C       0.90841   0.79124   0.07594 
C          C       0.21942   0.09966   0.14835 
C          C       0.90034   0.11976   0.14835 
C          C       0.88024   0.78058   0.14835 
C          C       0.24954   0.11226   0.18927 
C          C       0.88774   0.13728   0.18927 
C          C       0.86272   0.75046   0.18927 
C          C       0.40484   0.17786   0.43597 
C          C       0.82214   0.22698   0.43597 
C          C       0.77302   0.59516   0.43597 
C          C       0.43516   0.19021   0.47081 
C          C       0.80979   0.24495   0.47081 
C          C       0.75505   0.56484   0.47081 
C          C       0.45572   0.21903   0.41657 
C          C       0.78097   0.23669   0.41657 
C          C       0.76331   0.54428   0.41657 
C          C       0.44541   0.23537   0.32704 
C          C       0.76463   0.21004   0.32704 
C          C       0.78996   0.55459   0.32704 
C          C       0.41510   0.22301   0.29241 
C          C       0.77699   0.19209   0.29241 
C          C       0.80791   0.58490   0.29241 
C          C       0.17685   0.10481   0.04007 
C          C       0.89519   0.07204   0.04007 
C          C       0.92796   0.82315   0.04007 
C          C       0.48772   0.23138   0.45170 
C          C       0.76862   0.25634   0.45170 
C          C       0.74366   0.51228   0.45170 
N          N       0.15901   0.07624   0.02988 
N          N       0.92376   0.08277   0.02988 
N          N       0.91723   0.84099   0.02988 
N          N       0.50727   0.25750   0.39604 
N          N       0.74250   0.24977   0.39604 
N          N       0.75023   0.49273   0.39604 
C          C       0.12742   0.06244   0.00668 
C          C       0.93756   0.06498   0.00668 
C          C       0.93502   0.87258   0.00668 
C          C       0.53909   0.27225   0.41522 
C          C       0.72775   0.26684   0.41522 
C          C       0.73316   0.46091   0.41522 
C          C       0.11090   0.07429   0.07852 
C          C       0.92571   0.03661   0.07852 
C          C       0.96339   0.88910   0.07852 
C          C       0.07990   0.05924   0.06458 
C          C       0.94076   0.02066   0.06458 
C          C       0.97934   0.92010   0.06458 
C          C       0.06472   0.03224   0.47614 
C          C       0.96776   0.03248   0.47614 
C          C       0.96752   0.93528   0.47614 
C          C       0.08154   0.02077   0.40247 
C          C       0.97923   0.06077   0.40247 
C          C       0.93923   0.91846   0.40247 
C          C       0.11251   0.03550   0.42029 
C          C       0.96450   0.07701   0.42029 
C          C       0.92299   0.88749   0.42029 
C          C       0.55371   0.26003   0.00536 
C          C       0.73997   0.29368   0.00536 
C          C       0.70632   0.44629   0.00536 
C          C       0.58480   0.27523   0.01558 
C          C       0.72477   0.30957   0.01558 
C          C       0.69043   0.41520   0.01558 
C          C       0.60202   0.30275   0.43492 
C          C       0.69725   0.29927   0.43492 
C          C       0.70073   0.39798   0.43492 
C          C       0.58722   0.31488   0.34609 
C          C       0.68512   0.27234   0.34609 
C          C       0.72766   0.41278   0.34609 
C          C       0.55616   0.29986   0.33765 
C          C       0.70014   0.25630   0.33765 
C          C       0.74370   0.44384   0.33765 
C          C       0.03151   0.01571   0.46620 
C          C       0.98429   0.01580   0.46620 
C          C       0.98420   0.96849   0.46620 
C          C       0.63519   0.31846   0.44078 
C          C       0.68154   0.31673   0.44078 
C          C       0.68327   0.36481   0.44078 
C          C       0.01560   0.03112   0.46526 
C          C       0.96888   0.98448   0.46526 
C          C       0.01552   0.98440   0.46526 
C          C       0.65026   0.30222   0.44131 
C          C       0.69778   0.34804   0.44131 
C          C       0.65196   0.34974   0.44131 
N          N       0.35646   0.22361   0.38612 
N          N       0.77639   0.13285   0.38612 
N          N       0.86715   0.64354   0.38612 
C          C       0.33294   0.22785   0.36656 
C          C       0.77215   0.10509   0.36656 
C          C       0.89491   0.66706   0.36656 
N          N       0.30887   0.20449   0.29593 
N          N       0.79551   0.10438   0.29593 
N          N       0.89562   0.69113   0.29593 
N          N       0.33370   0.25496   0.41085 
N          N       0.74504   0.07874   0.41085 
N          N       0.92126   0.66630   0.41085 
C          C       0.31441   0.26402   0.32681 
C          C       0.73598   0.05039   0.32681 
C          C       0.94961   0.68559   0.32681 
C          C       0.33060   0.29807   0.30671 
C          C       0.70193   0.03253   0.30671 
C          C       0.96747   0.66940   0.30671 
O          O       0.35809   0.30806   0.22813 
O          O       0.69194   0.05003   0.22813 
O          O       0.94997   0.64191   0.22813 
C          C       0.28469   0.25223   0.42063 
C          C       0.74777   0.03246   0.42063 
C          C       0.96754   0.71531   0.42063 
C          C       0.25877   0.24655   0.31174 
C          C       0.75345   0.01222   0.31174 
C          C       0.98778   0.74123   0.31174 
C          C       0.25227   0.26936   0.28023 
C          C       0.73064   0.98291   0.28023 
C          C       0.01709   0.74773   0.28023 
C          C       0.22705   0.26347   0.18810 
C          C       0.73653   0.96358   0.18810 
C          C       0.03642   0.77295   0.18810 
C          C       0.20799   0.23475   0.12843 
C          C       0.76525   0.97324   0.12843 
C          C       0.02676   0.79201   0.12843 
C          C       0.21415   0.21189   0.16040 
C          C       0.78811   0.00226   0.16040 
C          C       0.99774   0.78585   0.16040 
C          C       0.23944   0.21773   0.25152 
C          C       0.78227   0.02171   0.25152 
C          C       0.97829   0.76056   0.25152 
H          H       0.30526   0.11720   0.13864 
H          H       0.88280   0.18806   0.13864 
H          H       0.81194   0.69474   0.13864 
H          H       0.35717   0.13848   0.22596 
H          H       0.86152   0.21869   0.22596 
H          H       0.78131   0.64283   0.22596 
H          H       0.27361   0.18293   0.05349 
H          H       0.81707   0.09068   0.05349 
H          H       0.90932   0.72639   0.05349 
H          H       0.22096   0.16105   0.48651 
H          H       0.83895   0.05991   0.48651 
H          H       0.94009   0.77904   0.48651 
H          H       0.20437   0.07644   0.17727 
H          H       0.92356   0.12793   0.17727 
H          H       0.87207   0.79563   0.17727 
H          H       0.25690   0.09843   0.24993 
H          H       0.90157   0.15847   0.24993 
H          H       0.84153   0.74310   0.24993 
H          H       0.38947   0.15550   0.47826 
H          H       0.84450   0.23397   0.47826 
H          H       0.76603   0.61053   0.47826 
H          H       0.44257   0.17717   0.03978 
H          H       0.82283   0.26540   0.03978 
H          H       0.73460   0.55743   0.03978 
H          H       0.46077   0.25751   0.28155 
H          H       0.74249   0.20326   0.28155 
H          H       0.79674   0.53923   0.28155 
H          H       0.40787   0.23568   0.21851 
H          H       0.76432   0.17219   0.21851 
H          H       0.82781   0.59213   0.21851 
H          H       0.16855   0.12004   0.01960 
H          H       0.87996   0.04851   0.01960 
H          H       0.95149   0.83145   0.01960 
H          H       0.49438   0.21790   0.02161 
H          H       0.78210   0.27648   0.02161 
H          H       0.72352   0.50562   0.02161 
H          H       0.12179   0.09448   0.15169 
H          H       0.90552   0.02731   0.15169 
H          H       0.97269   0.87821   0.15169 
H          H       0.06787   0.06831   0.12871 
H          H       0.93169   0.99956   0.12871 
H          H       0.00044   0.93213   0.12871 
H          H       0.07090   0.00051   0.32989 
H          H       0.99949   0.07039   0.32989 
H          H       0.92961   0.92910   0.32989 
H          H       0.12498   0.02609   0.36479 
H          H       0.97391   0.09889   0.36479 
H          H       0.90111   0.87502   0.36479 
H          H       0.54157   0.23906   0.06985 
H          H       0.76094   0.30251   0.06985 
H          H       0.69749   0.45843   0.06985 
H          H       0.59528   0.26557   0.08928 
H          H       0.73443   0.32971   0.08928 
H          H       0.67029   0.40472   0.08928 
H          H       0.59957   0.33557   0.27844 
H          H       0.66443   0.26400   0.27844 
H          H       0.73600   0.40043   0.27844 
H          H       0.54529   0.30945   0.26661 
H          H       0.69055   0.23584   0.26661 
H          H       0.76416   0.45471   0.26661 
H          H       0.02768   0.05519   0.46699 
H          H       0.94481   0.97249   0.46699 
H          H       0.02751   0.97232   0.46699 
H          H       0.63757   0.27815   0.44023 
H          H       0.72185   0.35942   0.44023 
H          H       0.64058   0.36243   0.44023 
H          H       0.37705   0.23828   0.43930 
H          H       0.76172   0.13877   0.43930 
H          H       0.86123   0.62295   0.43930 
H          H       0.35013   0.26946   0.49312 
H          H       0.73054   0.08067   0.49312 
H          H       0.91933   0.64987   0.49312 
H          H       0.33432   0.30887   0.43022 
H          H       0.69113   0.02545   0.43022 
H          H       0.97455   0.66568   0.43022 
H          H       0.31672   0.30447   0.23134 
H          H       0.69553   0.01225   0.23134 
H          H       0.98775   0.68328   0.23134 
H          H       0.36725   0.32999   0.21757 
H          H       0.67001   0.03726   0.21757 
H          H       0.96274   0.63275   0.21757 
H          H       0.28707   0.26829   0.01812 
H          H       0.73171   0.01878   0.01812 
H          H       0.98122   0.71293   0.01812 
H          H       0.27918   0.23100   0.48319 
H          H       0.76900   0.04818   0.48319 
H          H       0.95182   0.72082   0.48319 
H          H       0.26649   0.29157   0.32859 
H          H       0.70843   0.97492   0.32859 
H          H       0.02508   0.73351   0.32859 
H          H       0.22219   0.28113   0.16371 
H          H       0.71887   0.94106   0.16371 
H          H       0.05894   0.77781   0.16371 
H          H       0.18848   0.23023   0.05716 
H          H       0.76977   0.95825   0.05716 
H          H       0.04175   0.81152   0.05716 
H          H       0.19930   0.18965   0.11457 
H          H       0.81035   0.00965   0.11457 
H          H       0.99035   0.80070   0.11457 
H          H       0.24393   0.19982   0.27565 
H          H       0.80018   0.04411   0.27565 
H          H       0.95589   0.75607   0.27565 
H          H       0.30973   0.25398   0.20264 
H          H       0.74602   0.05575   0.20264 
H          H       0.94425   0.69027   0.20264 
C          C       0.31652   0.13942   0.69068 
C          C       0.86058   0.17710   0.69068 
C          C       0.82290   0.68348   0.69068 
C          C       0.34643   0.15166   0.74112 
C          C       0.84834   0.19477   0.74112 
C          C       0.80523   0.65357   0.74112 
C          C       0.36245   0.18079   0.80631 
C          C       0.81921   0.18166   0.80631 
C          C       0.81834   0.63755   0.80631 
C          C       0.34700   0.19646   0.82131 
C          C       0.80354   0.15054   0.82131 
C          C       0.84946   0.65300   0.82131 
C          C       0.31813   0.18479   0.76946 
C          C       0.81521   0.13334   0.76946 
C          C       0.86666   0.68187   0.76946 
C          C       0.30162   0.15591   0.70414 
C          C       0.84409   0.14571   0.70414 
C          C       0.85429   0.69838   0.70414 
C          C       0.26968   0.14252   0.65710 
C          C       0.85748   0.12716   0.65710 
C          C       0.87284   0.73032   0.65710 
C          C       0.39446   0.19426   0.84802 
C          C       0.80574   0.20020   0.84802 
C          C       0.79980   0.60554   0.84802 
C          C       0.25886   0.15976   0.58232 
C          C       0.84024   0.09910   0.58232 
C          C       0.90090   0.74114   0.58232 
C          C       0.22872   0.14724   0.54308 
C          C       0.85276   0.08148   0.54308 
C          C       0.91852   0.77128   0.54308 
C          C       0.20876   0.11717   0.57595 
C          C       0.88283   0.09159   0.57595 
C          C       0.90841   0.79124   0.57595 
C          C       0.21942   0.09966   0.64835 
C          C       0.90034   0.11976   0.64835 
C          C       0.88024   0.78058   0.64835 
C          C       0.24954   0.11226   0.68927 
C          C       0.88774   0.13728   0.68927 
C          C       0.86272   0.75046   0.68927 
C          C       0.40484   0.17786   0.93597 
C          C       0.82214   0.22698   0.93597 
C          C       0.77302   0.59516   0.93597 
C          C       0.43516   0.19021   0.97081 
C          C       0.80979   0.24495   0.97081 
C          C       0.75505   0.56484   0.97081 
C          C       0.45572   0.21903   0.91657 
C          C       0.78097   0.23669   0.91657 
C          C       0.76331   0.54428   0.91657 
C          C       0.44541   0.23537   0.82704 
C          C       0.76463   0.21004   0.82704 
C          C       0.78996   0.55459   0.82704 
C          C       0.41510   0.22301   0.79241 
C          C       0.77699   0.19209   0.79241 
C          C       0.80791   0.58490   0.79241 
C          C       0.17685   0.10481   0.54007 
C          C       0.89519   0.07204   0.54007 
C          C       0.92796   0.82315   0.54007 
C          C       0.48772   0.23138   0.95170 
C          C       0.76862   0.25634   0.95170 
C          C       0.74366   0.51228   0.95170 
N          N       0.15901   0.07624   0.52988 
N          N       0.92376   0.08277   0.52988 
N          N       0.91723   0.84099   0.52988 
N          N       0.50727   0.25750   0.89604 
N          N       0.74250   0.24977   0.89604 
N          N       0.75023   0.49273   0.89604 
C          C       0.12742   0.06244   0.50668 
C          C       0.93756   0.06498   0.50668 
C          C       0.93502   0.87258   0.50668 
C          C       0.53909   0.27225   0.91522 
C          C       0.72775   0.26684   0.91522 
C          C       0.73316   0.46091   0.91522 
C          C       0.11090   0.07429   0.57852 
C          C       0.92571   0.03661   0.57852 
C          C       0.96339   0.88910   0.57852 
C          C       0.07990   0.05924   0.56458 
C          C       0.94076   0.02066   0.56458 
C          C       0.97934   0.92010   0.56458 
C          C       0.06472   0.03224   0.97614 
C          C       0.96776   0.03248   0.97614 
C          C       0.96752   0.93528   0.97614 
C          C       0.08154   0.02077   0.90247 
C          C       0.97923   0.06077   0.90247 
C          C       0.93923   0.91846   0.90247 
C          C       0.11251   0.03550   0.92029 
C          C       0.96450   0.07701   0.92029 
C          C       0.92299   0.88749   0.92029 
C          C       0.55371   0.26003   0.50536 
C          C       0.73997   0.29368   0.50536 
C          C       0.70632   0.44629   0.50536 
C          C       0.58480   0.27523   0.51558 
C          C       0.72477   0.30957   0.51558 
C          C       0.69043   0.41520   0.51558 
C          C       0.60202   0.30275   0.93492 
C          C       0.69725   0.29927   0.93492 
C          C       0.70073   0.39798   0.93492 
C          C       0.58722   0.31488   0.84609 
C          C       0.68512   0.27234   0.84609 
C          C       0.72766   0.41278   0.84609 
C          C       0.55616   0.29986   0.83765 
C          C       0.70014   0.25630   0.83765 
C          C       0.74370   0.44384   0.83765 
C          C       0.03151   0.01571   0.96620 
C          C       0.98429   0.01580   0.96620 
C          C       0.98420   0.96849   0.96620 
C          C       0.63519   0.31846   0.94078 
C          C       0.68154   0.31673   0.94078 
C          C       0.68327   0.36481   0.94078 
C          C       0.01560   0.03112   0.96526 
C          C       0.96888   0.98448   0.96526 
C          C       0.01552   0.98440   0.96526 
C          C       0.65026   0.30222   0.94131 
C          C       0.69778   0.34804   0.94131 
C          C       0.65196   0.34974   0.94131 
N          N       0.35646   0.22361   0.88612 
N          N       0.77639   0.13285   0.88612 
N          N       0.86715   0.64354   0.88612 
C          C       0.33294   0.22785   0.86656 
C          C       0.77215   0.10509   0.86656 
C          C       0.89491   0.66706   0.86656 
N          N       0.30887   0.20449   0.79593 
N          N       0.79551   0.10438   0.79593 
N          N       0.89562   0.69113   0.79593 
N          N       0.33370   0.25496   0.91085 
N          N       0.74504   0.07874   0.91085 
N          N       0.92126   0.66630   0.91085 
C          C       0.31441   0.26402   0.82681 
C          C       0.73598   0.05039   0.82681 
C          C       0.94961   0.68559   0.82681 
C          C       0.33060   0.29807   0.80671 
C          C       0.70193   0.03253   0.80671 
C          C       0.96747   0.66940   0.80671 
O          O       0.35809   0.30806   0.72813 
O          O       0.69194   0.05003   0.72813 
O          O       0.94997   0.64191   0.72813 
C          C       0.28469   0.25223   0.92063 
C          C       0.74777   0.03246   0.92063 
C          C       0.96754   0.71531   0.92063 
C          C       0.25877   0.24655   0.81175 
C          C       0.75345   0.01222   0.81175 
C          C       0.98778   0.74123   0.81175 
C          C       0.25227   0.26936   0.78023 
C          C       0.73064   0.98291   0.78023 
C          C       0.01709   0.74773   0.78023 
C          C       0.22705   0.26347   0.68810 
C          C       0.73653   0.96358   0.68810 
C          C       0.03642   0.77295   0.68810 
C          C       0.20799   0.23475   0.62843 
C          C       0.76525   0.97324   0.62843 
C          C       0.02676   0.79201   0.62843 
C          C       0.21415   0.21189   0.66040 
C          C       0.78811   0.00226   0.66040 
C          C       0.99774   0.78585   0.66040 
C          C       0.23944   0.21773   0.75152 
C          C       0.78227   0.02171   0.75152 
C          C       0.97829   0.76056   0.75152 
H          H       0.30526   0.11720   0.63864 
H          H       0.88280   0.18806   0.63864 
H          H       0.81194   0.69474   0.63864 
H          H       0.35717   0.13848   0.72596 
H          H       0.86152   0.21869   0.72596 
H          H       0.78131   0.64283   0.72596 
H          H       0.27361   0.18293   0.55349 
H          H       0.81707   0.09068   0.55349 
H          H       0.90932   0.72639   0.55349 
H          H       0.22096   0.16105   0.98651 
H          H       0.83895   0.05991   0.98651 
H          H       0.94009   0.77904   0.98651 
H          H       0.20437   0.07644   0.67728 
H          H       0.92356   0.12793   0.67728 
H          H       0.87207   0.79563   0.67728 
H          H       0.25690   0.09843   0.74992 
H          H       0.90157   0.15847   0.74992 
H          H       0.84153   0.74310   0.74992 
H          H       0.38947   0.15550   0.97826 
H          H       0.84450   0.23397   0.97826 
H          H       0.76603   0.61053   0.97826 
H          H       0.44257   0.17717   0.53978 
H          H       0.82283   0.26540   0.53978 
H          H       0.73460   0.55743   0.53978 
H          H       0.46077   0.25751   0.78155 
H          H       0.74249   0.20326   0.78155 
H          H       0.79674   0.53923   0.78155 
H          H       0.40787   0.23568   0.71851 
H          H       0.76432   0.17219   0.71851 
H          H       0.82781   0.59213   0.71851 
H          H       0.16855   0.12004   0.51960 
H          H       0.87996   0.04851   0.51960 
H          H       0.95149   0.83145   0.51960 
H          H       0.49438   0.21790   0.52161 
H          H       0.78210   0.27648   0.52161 
H          H       0.72352   0.50562   0.52161 
H          H       0.12179   0.09448   0.65170 
H          H       0.90552   0.02731   0.65170 
H          H       0.97269   0.87821   0.65170 
H          H       0.06787   0.06831   0.62871 
H          H       0.93169   0.99956   0.62871 
H          H       0.00044   0.93213   0.62871 
H          H       0.07090   0.00051   0.82990 
H          H       0.99949   0.07039   0.82990 
H          H       0.92961   0.92910   0.82990 
H          H       0.12498   0.02609   0.86479 
H          H       0.97391   0.09889   0.86479 
H          H       0.90111   0.87502   0.86479 
H          H       0.54157   0.23906   0.56985 
H          H       0.76094   0.30251   0.56985 
H          H       0.69749   0.45843   0.56985 
H          H       0.59528   0.26557   0.58927 
H          H       0.73443   0.32971   0.58927 
H          H       0.67029   0.40472   0.58927 
H          H       0.59957   0.33557   0.77844 
H          H       0.66443   0.26400   0.77844 
H          H       0.73600   0.40043   0.77844 
H          H       0.54529   0.30945   0.76661 
H          H       0.69055   0.23584   0.76661 
H          H       0.76416   0.45471   0.76661 
H          H       0.02768   0.05519   0.96699 
H          H       0.94481   0.97249   0.96699 
H          H       0.02751   0.97232   0.96699 
H          H       0.63757   0.27815   0.94023 
H          H       0.72185   0.35942   0.94023 
H          H       0.64058   0.36243   0.94023 
H          H       0.37705   0.23828   0.93930 
H          H       0.76172   0.13877   0.93930 
H          H       0.86123   0.62295   0.93930 
H          H       0.35013   0.26946   0.99313 
H          H       0.73054   0.08067   0.99313 
H          H       0.91933   0.64987   0.99313 
H          H       0.33432   0.30887   0.93022 
H          H       0.69113   0.02545   0.93022 
H          H       0.97455   0.66568   0.93022 
H          H       0.31672   0.30447   0.73134 
H          H       0.69553   0.01225   0.73134 
H          H       0.98775   0.68328   0.73134 
H          H       0.36725   0.32999   0.71758 
H          H       0.67001   0.03726   0.71758 
H          H       0.96274   0.63275   0.71758 
H          H       0.28707   0.26829   0.51812 
H          H       0.73171   0.01878   0.51812 
H          H       0.98122   0.71293   0.51812 
H          H       0.27918   0.23100   0.98319 
H          H       0.76900   0.04818   0.98319 
H          H       0.95182   0.72082   0.98319 
H          H       0.26649   0.29157   0.82859 
H          H       0.70843   0.97492   0.82859 
H          H       0.02508   0.73351   0.82859 
H          H       0.22219   0.28113   0.66371 
H          H       0.71887   0.94106   0.66371 
H          H       0.05894   0.77781   0.66371 
H          H       0.18848   0.23023   0.55715 
H          H       0.76977   0.95825   0.55715 
H          H       0.04175   0.81152   0.55715 
H          H       0.19930   0.18965   0.61457 
H          H       0.81035   0.00965   0.61457 
H          H       0.99035   0.80070   0.61457 
H          H       0.24393   0.19982   0.77565 
H          H       0.80018   0.04411   0.77565 
H          H       0.95589   0.75607   0.77565 
H          H       0.30973   0.25398   0.70264 
H          H       0.74602   0.05575   0.70264 
H          H       0.94425   0.69027   0.70264 
