data_crystal

_cell_length_a    52.17750
_cell_length_b    52.17750
_cell_length_c    7.96500
_cell_angle_alpha 90.00000
_cell_angle_beta  90.00000
_cell_angle_gamma 120.00000

_space_group_name_Hall 'P 1'
_space_group_name_H-M_alt  'P 1'

loop_
_symmetry_equiv_pos_as_xyz
'x,y,z' 

loop_
_atom_site_label
_atom_site_type_symbol
_atom_site_fract_x
_atom_site_fract_y
_atom_site_fract_z
C          C       0.31450   0.14542   0.41519 
C          C       0.85458   0.16908   0.41519 
C          C       0.83092   0.68550   0.41519 
C          C       0.34543   0.15868   0.40196 
C          C       0.84132   0.18675   0.40196 
C          C       0.81325   0.65457   0.40196 
C          C       0.36421   0.18795   0.45687 
C          C       0.81205   0.17626   0.45687 
C          C       0.82374   0.63579   0.45687 
C          C       0.35053   0.20316   0.02148 
C          C       0.79684   0.14737   0.02148 
C          C       0.85263   0.64947   0.02148 
C          C       0.32052   0.18992   0.03887 
C          C       0.81008   0.13060   0.03887 
C          C       0.86940   0.67948   0.03887 
C          C       0.30144   0.16091   0.48585 
C          C       0.83909   0.14053   0.48585 
C          C       0.85947   0.69856   0.48585 
N          N       0.36296   0.23063   0.08468 
N          N       0.76937   0.13233   0.08468 
N          N       0.86767   0.63704   0.08468 
C          C       0.33975   0.23284   0.14167 
C          C       0.76716   0.10691   0.14167 
C          C       0.89309   0.66025   0.14167 
N          N       0.31322   0.20819   0.11744 
N          N       0.79181   0.10503   0.11744 
N          N       0.89497   0.68678   0.11744 
C          C       0.26895   0.14685   0.00267 
C          C       0.85315   0.12210   0.00267 
C          C       0.87790   0.73105   0.00267 
C          C       0.39670   0.20071   0.45413 
C          C       0.79929   0.19599   0.45413 
C          C       0.80401   0.60330   0.45413 
C          C       0.25441   0.16247   0.46118 
C          C       0.83753   0.09194   0.46118 
C          C       0.90806   0.74559   0.46118 
C          C       0.22379   0.14917   0.47769 
C          C       0.85083   0.07462   0.47769 
C          C       0.92538   0.77621   0.47769 
C          C       0.20709   0.11990   0.03332 
C          C       0.88010   0.08719   0.03332 
C          C       0.91281   0.79291   0.03332 
C          C       0.22153   0.10415   0.07387 
C          C       0.89585   0.11738   0.07387 
C          C       0.88262   0.77847   0.07387 
C          C       0.25219   0.11755   0.05903 
C          C       0.88245   0.13464   0.05903 
C          C       0.86536   0.74781   0.05903 
C          C       0.40914   0.18405   0.01484 
C          C       0.81595   0.22509   0.01484 
C          C       0.77491   0.59086   0.01484 
C          C       0.43964   0.19527   0.01261 
C          C       0.80473   0.24437   0.01261 
C          C       0.75563   0.56036   0.01261 
C          C       0.45864   0.22367   0.45164 
C          C       0.77633   0.23497   0.45164 
C          C       0.76503   0.54136   0.45164 
C          C       0.44568   0.24120   0.38716 
C          C       0.75880   0.20448   0.38716 
C          C       0.79552   0.55432   0.38716 
C          C       0.41515   0.22904   0.38891 
C          C       0.77096   0.18611   0.38891 
C          C       0.81389   0.58485   0.38891 
C          C       0.17476   0.10620   0.04788 
C          C       0.89380   0.06856   0.04788 
C          C       0.93144   0.82524   0.04788 
C          C       0.49074   0.23548   0.45043 
C          C       0.76452   0.25526   0.45043 
C          C       0.74474   0.50926   0.45043 
N          N       0.15810   0.07769   0.05627 
N          N       0.92231   0.08041   0.05627 
N          N       0.91959   0.84190   0.05627 
N          N       0.50878   0.26370   0.43874 
N          N       0.73630   0.24508   0.43874 
N          N       0.75492   0.49122   0.43874 
C          C       0.12652   0.06247   0.06965 
C          C       0.93753   0.06405   0.06965 
C          C       0.93595   0.87348   0.06965 
C          C       0.54031   0.27710   0.43423 
C          C       0.72290   0.26321   0.43423 
C          C       0.73679   0.45969   0.43423 
C          C       0.11165   0.07465   0.15557 
C          C       0.92535   0.03700   0.15557 
C          C       0.96300   0.88835   0.15557 
C          C       0.08084   0.05912   0.16615 
C          C       0.94088   0.02172   0.16615 
C          C       0.97828   0.91916   0.16615 
C          C       0.06420   0.03132   0.08857 
C          C       0.96868   0.03288   0.08857 
C          C       0.96712   0.93580   0.08857 
C          C       0.07940   0.01922   0.00415 
C          C       0.98078   0.06018   0.00415 
C          C       0.93982   0.92060   0.00415 
C          C       0.11022   0.03445   0.49759 
C          C       0.96555   0.07577   0.49759 
C          C       0.92423   0.88978   0.49759 
C          C       0.55425   0.26357   0.35230 
C          C       0.73643   0.29068   0.35230 
C          C       0.70932   0.44575   0.35230 
C          C       0.58504   0.27750   0.34702 
C          C       0.72250   0.30754   0.34702 
C          C       0.69246   0.41496   0.34702 
C          C       0.60258   0.30498   0.42645 
C          C       0.69502   0.29760   0.42645 
C          C       0.70240   0.39742   0.42645 
C          C       0.58831   0.31835   0.00794 
C          C       0.68165   0.26996   0.00794 
C          C       0.73004   0.41169   0.00794 
C          C       0.55754   0.30475   0.00882 
C          C       0.69525   0.25279   0.00882 
C          C       0.74721   0.44246   0.00882 
C          C       0.03124   0.01522   0.09377 
C          C       0.98478   0.01602   0.09377 
C          C       0.98398   0.96876   0.09377 
C          C       0.63549   0.31955   0.42459 
C          C       0.68045   0.31594   0.42459 
C          C       0.68406   0.36451   0.42459 
C          C       0.01581   0.03084   0.09427 
C          C       0.96916   0.98497   0.09427 
C          C       0.01503   0.98419   0.09427 
C          C       0.64950   0.30256   0.42440 
C          C       0.69744   0.34694   0.42440 
C          C       0.65306   0.35050   0.42440 
N          N       0.34260   0.25843   0.22444 
N          N       0.74157   0.08417   0.22444 
N          N       0.91583   0.65740   0.22444 
C          C       0.36120   0.28813   0.15470 
C          C       0.71187   0.07307   0.15470 
C          C       0.92693   0.63880   0.15470 
C          C       0.39394   0.30323   0.21308 
C          C       0.69677   0.09071   0.21308 
C          C       0.90929   0.60606   0.21308 
C          C       0.35114   0.30874   0.21147 
C          C       0.69126   0.04240   0.21147 
C          C       0.95760   0.64886   0.21147 
C          C       0.37359   0.33390   0.28251 
C          C       0.66610   0.03969   0.28251 
C          C       0.96031   0.62641   0.28251 
C          C       0.40191   0.33394   0.28339 
C          C       0.66606   0.06797   0.28339 
C          C       0.93203   0.59809   0.28339 
C          C       0.36887   0.35639   0.34099 
C          C       0.64361   0.01248   0.34099 
C          C       0.98752   0.63113   0.34099 
C          C       0.34058   0.35292   0.32560 
C          C       0.64708   0.98766   0.32560 
C          C       0.01234   0.65942   0.32560 
C          C       0.31764   0.32730   0.25110 
C          C       0.67270   0.99034   0.25110 
C          C       0.00966   0.68236   0.25110 
C          C       0.32291   0.30505   0.19248 
C          C       0.69495   0.01786   0.19248 
C          C       0.98214   0.67709   0.19248 
O          O       0.39812   0.28613   0.33347 
O          O       0.71387   0.11199   0.33347 
O          O       0.88801   0.60188   0.33347 
H          H       0.30084   0.12307   0.36966 
H          H       0.87693   0.17777   0.36966 
H          H       0.82223   0.69916   0.36966 
H          H       0.35467   0.14603   0.34830 
H          H       0.85397   0.20864   0.34830 
H          H       0.79136   0.64533   0.34830 
H          H       0.38527   0.24646   0.09262 
H          H       0.75354   0.13881   0.09262 
H          H       0.86119   0.61473   0.09262 
H          H       0.26667   0.18484   0.41359 
H          H       0.81516   0.08183   0.41359 
H          H       0.91817   0.73333   0.41359 
H          H       0.21307   0.16163   0.44450 
H          H       0.83837   0.05144   0.44450 
H          H       0.94856   0.78693   0.44450 
H          H       0.20919   0.08161   0.11867 
H          H       0.91839   0.12758   0.11867 
H          H       0.87242   0.79081   0.11867 
H          H       0.26286   0.10511   0.09348 
H          H       0.89489   0.15775   0.09348 
H          H       0.84225   0.73714   0.09348 
H          H       0.39507   0.16220   0.06620 
H          H       0.83780   0.23287   0.06620 
H          H       0.76713   0.60493   0.06620 
H          H       0.44842   0.18185   0.06102 
H          H       0.81815   0.26657   0.06102 
H          H       0.73343   0.55158   0.06102 
H          H       0.45954   0.26305   0.33531 
H          H       0.73695   0.19649   0.33531 
H          H       0.80351   0.54046   0.33531 
H          H       0.40583   0.24161   0.33748 
H          H       0.75839   0.16422   0.33748 
H          H       0.83578   0.59417   0.33748 
H          H       0.16500   0.12021   0.04217 
H          H       0.87979   0.04479   0.04217 
H          H       0.95521   0.83500   0.04217 
H          H       0.49913   0.22042   0.46713 
H          H       0.77958   0.27871   0.46713 
H          H       0.72129   0.50087   0.46713 
H          H       0.12380   0.09579   0.21823 
H          H       0.90421   0.02801   0.21823 
H          H       0.97199   0.87620   0.21823 
H          H       0.07019   0.06876   0.23800 
H          H       0.93124   0.00143   0.23800 
H          H       0.99857   0.92981   0.23800 
H          H       0.06760   0.99832   0.43881 
H          H       0.00168   0.06928   0.43881 
H          H       0.93072   0.93240   0.43881 
H          H       0.12144   0.02482   0.43109 
H          H       0.97518   0.09662   0.43109 
H          H       0.90338   0.87856   0.43109 
H          H       0.54137   0.24268   0.28813 
H          H       0.75732   0.29869   0.28813 
H          H       0.70131   0.45863   0.28813 
H          H       0.59499   0.26694   0.27726 
H          H       0.73306   0.32805   0.27726 
H          H       0.67195   0.40501   0.27726 
H          H       0.60078   0.33903   0.07461 
H          H       0.66097   0.26175   0.07461 
H          H       0.73825   0.39922   0.07461 
H          H       0.54703   0.31541   0.07225 
H          H       0.68459   0.23162   0.07225 
H          H       0.76838   0.45297   0.07225 
H          H       0.02804   0.05469   0.09347 
H          H       0.94531   0.97335   0.09347 
H          H       0.02665   0.97196   0.09347 
H          H       0.63622   0.27876   0.42465 
H          H       0.72124   0.35746   0.42465 
H          H       0.64254   0.36378   0.42465 
H          H       0.32623   0.25491   0.31196 
H          H       0.74509   0.07132   0.31196 
H          H       0.92868   0.67377   0.31196 
H          H       0.40859   0.30643   0.10565 
H          H       0.69357   0.10216   0.10565 
H          H       0.89784   0.59141   0.10565 
H          H       0.41121   0.33782   0.41154 
H          H       0.66218   0.07339   0.41154 
H          H       0.92661   0.58879   0.41154 
H          H       0.41796   0.35186   0.20020 
H          H       0.64814   0.06610   0.20020 
H          H       0.93390   0.58204   0.20020 
H          H       0.38667   0.37613   0.39724 
H          H       0.62387   0.01054   0.39724 
H          H       0.98946   0.61333   0.39724 
H          H       0.33643   0.37004   0.37069 
H          H       0.62996   0.96639   0.37069 
H          H       0.03361   0.66357   0.37069 
H          H       0.29590   0.32480   0.23834 
H          H       0.67520   0.97110   0.23834 
H          H       0.02890   0.70410   0.23834 
H          H       0.30542   0.28541   0.13354 
H          H       0.71459   0.02001   0.13354 
H          H       0.97999   0.69458   0.13354 
H          H       0.41974   0.29392   0.34091 
H          H       0.70608   0.12582   0.34091 
H          H       0.87418   0.58026   0.34091 
H          H       0.35985   0.28709   0.01656 
H          H       0.71291   0.07276   0.01656 
H          H       0.92724   0.64015   0.01656 
C          C       0.31450   0.14542   0.91519 
C          C       0.85458   0.16908   0.91519 
C          C       0.83092   0.68550   0.91519 
C          C       0.34543   0.15868   0.90196 
C          C       0.84132   0.18675   0.90196 
C          C       0.81325   0.65457   0.90196 
C          C       0.36421   0.18795   0.95688 
C          C       0.81205   0.17626   0.95688 
C          C       0.82374   0.63579   0.95688 
C          C       0.35053   0.20316   0.52148 
C          C       0.79684   0.14737   0.52148 
C          C       0.85263   0.64947   0.52148 
C          C       0.32052   0.18992   0.53887 
C          C       0.81008   0.13060   0.53887 
C          C       0.86940   0.67948   0.53887 
C          C       0.30144   0.16091   0.98585 
C          C       0.83909   0.14053   0.98585 
C          C       0.85947   0.69856   0.98585 
N          N       0.36296   0.23063   0.58468 
N          N       0.76937   0.13233   0.58468 
N          N       0.86767   0.63704   0.58468 
C          C       0.33975   0.23284   0.64167 
C          C       0.76716   0.10691   0.64167 
C          C       0.89309   0.66025   0.64167 
N          N       0.31322   0.20819   0.61744 
N          N       0.79181   0.10503   0.61744 
N          N       0.89497   0.68678   0.61744 
C          C       0.26895   0.14685   0.50267 
C          C       0.85315   0.12210   0.50267 
C          C       0.87790   0.73105   0.50267 
C          C       0.39670   0.20071   0.95413 
C          C       0.79929   0.19599   0.95413 
C          C       0.80401   0.60330   0.95413 
C          C       0.25441   0.16247   0.96118 
C          C       0.83753   0.09194   0.96118 
C          C       0.90806   0.74559   0.96118 
C          C       0.22379   0.14917   0.97769 
C          C       0.85083   0.07462   0.97769 
C          C       0.92538   0.77621   0.97769 
C          C       0.20709   0.11990   0.53332 
C          C       0.88010   0.08719   0.53332 
C          C       0.91281   0.79291   0.53332 
C          C       0.22153   0.10415   0.57387 
C          C       0.89585   0.11738   0.57387 
C          C       0.88262   0.77847   0.57387 
C          C       0.25219   0.11755   0.55903 
C          C       0.88245   0.13464   0.55903 
C          C       0.86536   0.74781   0.55903 
C          C       0.40914   0.18405   0.51484 
C          C       0.81595   0.22509   0.51484 
C          C       0.77491   0.59086   0.51484 
C          C       0.43964   0.19527   0.51262 
C          C       0.80473   0.24437   0.51262 
C          C       0.75563   0.56036   0.51262 
C          C       0.45864   0.22367   0.95164 
C          C       0.77633   0.23497   0.95164 
C          C       0.76503   0.54136   0.95164 
C          C       0.44568   0.24120   0.88716 
C          C       0.75880   0.20448   0.88716 
C          C       0.79552   0.55432   0.88716 
C          C       0.41515   0.22904   0.88891 
C          C       0.77096   0.18611   0.88891 
C          C       0.81389   0.58485   0.88891 
C          C       0.17476   0.10620   0.54789 
C          C       0.89380   0.06856   0.54789 
C          C       0.93144   0.82524   0.54789 
C          C       0.49074   0.23548   0.95043 
C          C       0.76452   0.25526   0.95043 
C          C       0.74474   0.50926   0.95043 
N          N       0.15810   0.07769   0.55627 
N          N       0.92231   0.08041   0.55627 
N          N       0.91959   0.84190   0.55627 
N          N       0.50878   0.26370   0.93875 
N          N       0.73630   0.24508   0.93875 
N          N       0.75492   0.49122   0.93875 
C          C       0.12652   0.06247   0.56964 
C          C       0.93753   0.06405   0.56964 
C          C       0.93595   0.87348   0.56964 
C          C       0.54031   0.27710   0.93423 
C          C       0.72290   0.26321   0.93423 
C          C       0.73679   0.45969   0.93423 
C          C       0.11165   0.07465   0.65557 
C          C       0.92535   0.03700   0.65557 
C          C       0.96300   0.88835   0.65557 
C          C       0.08084   0.05912   0.66615 
C          C       0.94088   0.02172   0.66615 
C          C       0.97828   0.91916   0.66615 
C          C       0.06420   0.03132   0.58857 
C          C       0.96868   0.03288   0.58857 
C          C       0.96712   0.93580   0.58857 
C          C       0.07940   0.01922   0.50415 
C          C       0.98078   0.06018   0.50415 
C          C       0.93982   0.92060   0.50415 
C          C       0.11022   0.03445   0.99758 
C          C       0.96555   0.07577   0.99758 
C          C       0.92423   0.88978   0.99758 
C          C       0.55425   0.26357   0.85230 
C          C       0.73643   0.29068   0.85230 
C          C       0.70932   0.44575   0.85230 
C          C       0.58504   0.27750   0.84702 
C          C       0.72250   0.30754   0.84702 
C          C       0.69246   0.41496   0.84702 
C          C       0.60258   0.30498   0.92645 
C          C       0.69502   0.29760   0.92645 
C          C       0.70240   0.39742   0.92645 
C          C       0.58831   0.31835   0.50794 
C          C       0.68165   0.26996   0.50794 
C          C       0.73004   0.41169   0.50794 
C          C       0.55754   0.30475   0.50882 
C          C       0.69525   0.25279   0.50882 
C          C       0.74721   0.44246   0.50882 
C          C       0.03124   0.01522   0.59377 
C          C       0.98478   0.01602   0.59377 
C          C       0.98398   0.96876   0.59377 
C          C       0.63549   0.31955   0.92459 
C          C       0.68045   0.31594   0.92459 
C          C       0.68406   0.36451   0.92459 
C          C       0.01581   0.03084   0.59427 
C          C       0.96916   0.98497   0.59427 
C          C       0.01503   0.98419   0.59427 
C          C       0.64950   0.30256   0.92440 
C          C       0.69744   0.34694   0.92440 
C          C       0.65306   0.35050   0.92440 
N          N       0.34260   0.25843   0.72444 
N          N       0.74157   0.08417   0.72444 
N          N       0.91583   0.65740   0.72444 
C          C       0.36120   0.28813   0.65470 
C          C       0.71187   0.07307   0.65470 
C          C       0.92693   0.63880   0.65470 
C          C       0.39394   0.30323   0.71308 
C          C       0.69677   0.09071   0.71308 
C          C       0.90929   0.60606   0.71308 
C          C       0.35114   0.30874   0.71147 
C          C       0.69126   0.04240   0.71147 
C          C       0.95760   0.64886   0.71147 
C          C       0.37359   0.33390   0.78251 
C          C       0.66610   0.03969   0.78251 
C          C       0.96031   0.62641   0.78251 
C          C       0.40191   0.33394   0.78339 
C          C       0.66606   0.06797   0.78339 
C          C       0.93203   0.59809   0.78339 
C          C       0.36887   0.35639   0.84100 
C          C       0.64361   0.01248   0.84100 
C          C       0.98752   0.63113   0.84100 
C          C       0.34058   0.35292   0.82559 
C          C       0.64708   0.98766   0.82559 
C          C       0.01234   0.65942   0.82559 
C          C       0.31764   0.32730   0.75110 
C          C       0.67270   0.99034   0.75110 
C          C       0.00966   0.68236   0.75110 
C          C       0.32291   0.30505   0.69248 
C          C       0.69495   0.01786   0.69248 
C          C       0.98214   0.67709   0.69248 
O          O       0.39812   0.28613   0.83347 
O          O       0.71387   0.11199   0.83347 
O          O       0.88801   0.60188   0.83347 
H          H       0.30084   0.12307   0.86965 
H          H       0.87693   0.17777   0.86965 
H          H       0.82223   0.69916   0.86965 
H          H       0.35467   0.14603   0.84830 
H          H       0.85397   0.20864   0.84830 
H          H       0.79136   0.64533   0.84830 
H          H       0.38527   0.24646   0.59262 
H          H       0.75354   0.13881   0.59262 
H          H       0.86119   0.61473   0.59262 
H          H       0.26667   0.18484   0.91359 
H          H       0.81516   0.08183   0.91359 
H          H       0.91817   0.73333   0.91359 
H          H       0.21307   0.16163   0.94450 
H          H       0.83837   0.05144   0.94450 
H          H       0.94856   0.78693   0.94450 
H          H       0.20919   0.08161   0.61867 
H          H       0.91839   0.12758   0.61867 
H          H       0.87242   0.79081   0.61867 
H          H       0.26286   0.10511   0.59349 
H          H       0.89489   0.15775   0.59349 
H          H       0.84225   0.73714   0.59349 
H          H       0.39507   0.16220   0.56620 
H          H       0.83780   0.23287   0.56620 
H          H       0.76713   0.60493   0.56620 
H          H       0.44842   0.18185   0.56102 
H          H       0.81815   0.26657   0.56102 
H          H       0.73343   0.55158   0.56102 
H          H       0.45954   0.26305   0.83531 
H          H       0.73695   0.19649   0.83531 
H          H       0.80351   0.54046   0.83531 
H          H       0.40583   0.24161   0.83748 
H          H       0.75839   0.16422   0.83748 
H          H       0.83578   0.59417   0.83748 
H          H       0.16500   0.12021   0.54217 
H          H       0.87979   0.04479   0.54217 
H          H       0.95521   0.83500   0.54217 
H          H       0.49913   0.22042   0.96713 
H          H       0.77958   0.27871   0.96713 
H          H       0.72129   0.50087   0.96713 
H          H       0.12380   0.09579   0.71823 
H          H       0.90421   0.02801   0.71823 
H          H       0.97199   0.87620   0.71823 
H          H       0.07019   0.06876   0.73801 
H          H       0.93124   0.00143   0.73801 
H          H       0.99857   0.92981   0.73801 
H          H       0.06760   0.99832   0.93881 
H          H       0.00168   0.06928   0.93881 
H          H       0.93072   0.93240   0.93881 
H          H       0.12144   0.02482   0.93109 
H          H       0.97518   0.09662   0.93109 
H          H       0.90338   0.87856   0.93109 
H          H       0.54137   0.24268   0.78812 
H          H       0.75732   0.29869   0.78812 
H          H       0.70131   0.45863   0.78812 
H          H       0.59499   0.26694   0.77726 
H          H       0.73306   0.32805   0.77726 
H          H       0.67195   0.40501   0.77726 
H          H       0.60078   0.33903   0.57461 
H          H       0.66097   0.26175   0.57461 
H          H       0.73825   0.39922   0.57461 
H          H       0.54703   0.31541   0.57225 
H          H       0.68459   0.23162   0.57225 
H          H       0.76838   0.45297   0.57225 
H          H       0.02804   0.05469   0.59347 
H          H       0.94531   0.97335   0.59347 
H          H       0.02665   0.97196   0.59347 
H          H       0.63622   0.27876   0.92465 
H          H       0.72124   0.35746   0.92465 
H          H       0.64254   0.36378   0.92465 
H          H       0.32623   0.25491   0.81196 
H          H       0.74509   0.07132   0.81196 
H          H       0.92868   0.67377   0.81196 
H          H       0.40859   0.30643   0.60565 
H          H       0.69357   0.10216   0.60565 
H          H       0.89784   0.59141   0.60565 
H          H       0.41121   0.33782   0.91154 
H          H       0.66218   0.07339   0.91154 
H          H       0.92661   0.58879   0.91154 
H          H       0.41796   0.35186   0.70020 
H          H       0.64814   0.06610   0.70020 
H          H       0.93390   0.58204   0.70020 
H          H       0.38667   0.37613   0.89724 
H          H       0.62387   0.01054   0.89724 
H          H       0.98946   0.61333   0.89724 
H          H       0.33643   0.37004   0.87069 
H          H       0.62996   0.96639   0.87069 
H          H       0.03361   0.66357   0.87069 
H          H       0.29590   0.32480   0.73834 
H          H       0.67520   0.97110   0.73834 
H          H       0.02890   0.70410   0.73834 
H          H       0.30542   0.28541   0.63355 
H          H       0.71459   0.02001   0.63355 
H          H       0.97999   0.69458   0.63355 
H          H       0.41974   0.29392   0.84091 
H          H       0.70608   0.12582   0.84091 
H          H       0.87418   0.58026   0.84091 
H          H       0.35985   0.28709   0.51655 
H          H       0.71291   0.07276   0.51655 
H          H       0.92724   0.64015   0.51655 
