data_crystal

_cell_length_a    52.18500
_cell_length_b    52.18500
_cell_length_c    8.35020
_cell_angle_alpha 90.00000
_cell_angle_beta  90.00000
_cell_angle_gamma 120.00000

_space_group_name_Hall 'P 1'
_space_group_name_H-M_alt  'P 1'

loop_
_symmetry_equiv_pos_as_xyz
'x,y,z' 

loop_
_atom_site_label
_atom_site_type_symbol
_atom_site_fract_x
_atom_site_fract_y
_atom_site_fract_z
C          C       0.30252   0.15347   0.01055 
C          C       0.84653   0.14905   0.01055 
C          C       0.85095   0.69748   0.01055 
C          C       0.31795   0.13826   0.47787 
C          C       0.86174   0.17969   0.47787 
C          C       0.82031   0.68205   0.47787 
C          C       0.34826   0.15090   0.01544 
C          C       0.84910   0.19736   0.01544 
C          C       0.80264   0.65174   0.01544 
C          C       0.36395   0.17892   0.08932 
C          C       0.82108   0.18503   0.08932 
C          C       0.81497   0.63605   0.08932 
C          C       0.34786   0.19311   0.12432 
C          C       0.80689   0.15475   0.12432 
C          C       0.84525   0.65214   0.12432 
C          C       0.31878   0.18140   0.08225 
C          C       0.81860   0.13738   0.08225 
C          C       0.86262   0.68122   0.08225 
C          C       0.39624   0.19295   0.11880 
C          C       0.80705   0.20329   0.11880 
C          C       0.79671   0.60376   0.11880 
C          C       0.27031   0.13975   0.47684 
C          C       0.86025   0.13056   0.47684 
C          C       0.86944   0.72969   0.47684 
C          C       0.40817   0.17656   0.18628 
C          C       0.82344   0.23161   0.18628 
C          C       0.76839   0.59183   0.18628 
C          C       0.43872   0.18924   0.20621 
C          C       0.81076   0.24948   0.20621 
C          C       0.75052   0.56128   0.20621 
C          C       0.45794   0.21860   0.16024 
C          C       0.78140   0.23934   0.16024 
C          C       0.76066   0.54206   0.16024 
C          C       0.44606   0.23512   0.09369 
C          C       0.76488   0.21094   0.09369 
C          C       0.78906   0.55394   0.09369 
C          C       0.41554   0.22231   0.07171 
C          C       0.77769   0.19323   0.07171 
C          C       0.80677   0.58446   0.07171 
C          C       0.25097   0.10970   0.01041 
C          C       0.89030   0.14127   0.01041 
C          C       0.85873   0.74903   0.01041 
C          C       0.22050   0.09705   0.48563 
C          C       0.90295   0.12345   0.48563 
C          C       0.87655   0.77950   0.48563 
C          C       0.20874   0.11429   0.42785 
C          C       0.88571   0.09445   0.42785 
C          C       0.90555   0.79126   0.42785 
C          C       0.22804   0.14415   0.39211 
C          C       0.85585   0.08389   0.39211 
C          C       0.91611   0.77196   0.39211 
C          C       0.25848   0.15665   0.41516 
C          C       0.84335   0.10183   0.41516 
C          C       0.89817   0.74152   0.41516 
C          C       0.49021   0.23113   0.17641 
C          C       0.76887   0.25908   0.17641 
C          C       0.74092   0.50979   0.17641 
C          C       0.17652   0.10194   0.41002 
C          C       0.89806   0.07458   0.41002 
C          C       0.92542   0.82348   0.41002 
N          N       0.50815   0.25953   0.17680 
N          N       0.74047   0.24862   0.17680 
N          N       0.75138   0.49185   0.17680 
C          C       0.53979   0.27329   0.18467 
C          C       0.72671   0.26650   0.18467 
C          C       0.73350   0.46021   0.18467 
N          N       0.15850   0.07357   0.40507 
N          N       0.92643   0.08493   0.40507 
N          N       0.91507   0.84150   0.40507 
C          C       0.12686   0.05992   0.39612 
C          C       0.94008   0.06694   0.39612 
C          C       0.93306   0.87314   0.39612 
C          C       0.55509   0.26120   0.10604 
C          C       0.73880   0.29389   0.10604 
C          C       0.70611   0.44491   0.10604 
C          C       0.58600   0.27585   0.10896 
C          C       0.72415   0.31015   0.10896 
C          C       0.68985   0.41400   0.10896 
C          C       0.60233   0.30270   0.19254 
C          C       0.69730   0.29963   0.19254 
C          C       0.70037   0.39767   0.19254 
C          C       0.58676   0.31454   0.27173 
C          C       0.68546   0.27222   0.27173 
C          C       0.72778   0.41324   0.27173 
C          C       0.55587   0.30019   0.26545 
C          C       0.69981   0.25568   0.26545 
C          C       0.74432   0.44413   0.26545 
C          C       0.11151   0.07195   0.47484 
C          C       0.92805   0.03956   0.47484 
C          C       0.96044   0.88849   0.47484 
C          C       0.08061   0.05736   0.47097 
C          C       0.94264   0.02325   0.47097 
C          C       0.97675   0.91939   0.47097 
C          C       0.06433   0.03060   0.38658 
C          C       0.96940   0.03373   0.38658 
C          C       0.96627   0.93567   0.38658 
C          C       0.07994   0.01881   0.30734 
C          C       0.98119   0.06113   0.30734 
C          C       0.93887   0.92006   0.30734 
C          C       0.11081   0.03312   0.31436 
C          C       0.96688   0.07769   0.31436 
C          C       0.92231   0.88919   0.31436 
C          C       0.03129   0.01489   0.38354 
C          C       0.98511   0.01640   0.38354 
C          C       0.98360   0.96871   0.38354 
C          C       0.63537   0.31843   0.19504 
C          C       0.68157   0.31694   0.19504 
C          C       0.68306   0.36463   0.19504 
C          C       0.65196   0.34951   0.19524 
C          C       0.65049   0.30245   0.19524 
C          C       0.69755   0.34804   0.19524 
C          C       0.01470   0.98381   0.38330 
C          C       0.01619   0.03089   0.38330 
C          C       0.96911   0.98530   0.38330 
N          N       0.30924   0.20017   0.12231 
N          N       0.79983   0.10907   0.12231 
N          N       0.89093   0.69076   0.12231 
C          C       0.33330   0.22287   0.19211 
C          C       0.77713   0.11043   0.19211 
C          C       0.88957   0.66670   0.19211 
N          N       0.35704   0.21906   0.19829 
N          N       0.78094   0.13798   0.19829 
N          N       0.86202   0.64296   0.19829 
N          N       0.33442   0.24964   0.24227 
N          N       0.75036   0.08478   0.24227 
N          N       0.91522   0.66558   0.24227 
C          C       0.32477   0.26560   0.13539 
C          C       0.73440   0.05917   0.13539 
C          C       0.94083   0.67523   0.13539 
C          C       0.35029   0.29802   0.09919 
C          C       0.70198   0.05227   0.09919 
C          C       0.94773   0.64971   0.09919 
N          N       0.37895   0.30563   0.17437 
N          N       0.69437   0.07332   0.17437 
N          N       0.92668   0.62105   0.17437 
C          C       0.39726   0.33784   0.19599 
C          C       0.66216   0.05942   0.19599 
C          C       0.94058   0.60274   0.19599 
C          C       0.39546   0.29502   0.07839 
C          C       0.70498   0.10044   0.07839 
C          C       0.89956   0.60454   0.07839 
C          C       0.29382   0.26195   0.18117 
C          C       0.73805   0.03187   0.18117 
C          C       0.96813   0.70618   0.18117 
C          C       0.29442   0.28716   0.27919 
C          C       0.71284   0.00726   0.27919 
C          C       0.99274   0.70558   0.27919 
C          C       0.27233   0.23155   0.25307 
C          C       0.76845   0.04078   0.25307 
C          C       0.95922   0.72767   0.25307 
H          H       0.30677   0.11681   0.42047 
H          H       0.88319   0.18996   0.42047 
H          H       0.81004   0.69323   0.42047 
H          H       0.35952   0.13895   0.48395 
H          H       0.86105   0.22057   0.48395 
H          H       0.77943   0.64048   0.48395 
H          H       0.39382   0.15389   0.22318 
H          H       0.84611   0.23993   0.22318 
H          H       0.76007   0.60618   0.22318 
H          H       0.44738   0.17608   0.25764 
H          H       0.82392   0.27130   0.25764 
H          H       0.72870   0.55262   0.25764 
H          H       0.46041   0.25765   0.05447 
H          H       0.74235   0.20276   0.05447 
H          H       0.79724   0.53959   0.05447 
H          H       0.40707   0.23515   0.01434 
H          H       0.76485   0.17192   0.01434 
H          H       0.82808   0.59293   0.01434 
H          H       0.25930   0.09613   0.05993 
H          H       0.90387   0.16317   0.05993 
H          H       0.83683   0.74070   0.05993 
H          H       0.20611   0.07401   0.01568 
H          H       0.92599   0.13210   0.01568 
H          H       0.86790   0.79389   0.01568 
H          H       0.21956   0.15786   0.34631 
H          H       0.84214   0.06170   0.34631 
H          H       0.93830   0.78044   0.34631 
H          H       0.27281   0.17957   0.38466 
H          H       0.82043   0.09324   0.38466 
H          H       0.90676   0.72719   0.38466 
H          H       0.49872   0.21615   0.19246 
H          H       0.78385   0.28257   0.19246 
H          H       0.71743   0.50128   0.19246 
H          H       0.16813   0.11708   0.39748 
H          H       0.88292   0.05105   0.39748 
H          H       0.94895   0.83187   0.39748 
H          H       0.54322   0.24097   0.03777 
H          H       0.75903   0.30225   0.03777 
H          H       0.69775   0.45678   0.03777 
H          H       0.59705   0.26647   0.04191 
H          H       0.73353   0.33058   0.04191 
H          H       0.66942   0.40295   0.04191 
H          H       0.59834   0.33474   0.34042 
H          H       0.66526   0.26360   0.34042 
H          H       0.73640   0.40166   0.34042 
H          H       0.54439   0.30981   0.32622 
H          H       0.69019   0.23458   0.32622 
H          H       0.76542   0.45561   0.32622 
H          H       0.12331   0.09207   0.04403 
H          H       0.90793   0.03124   0.04403 
H          H       0.96876   0.87669   0.04403 
H          H       0.06951   0.06669   0.03808 
H          H       0.93331   0.00282   0.03808 
H          H       0.99718   0.93049   0.03808 
H          H       0.06838   0.99867   0.23812 
H          H       0.00133   0.06971   0.23812 
H          H       0.93029   0.93162   0.23812 
H          H       0.12233   0.02353   0.25356 
H          H       0.97647   0.09880   0.25356 
H          H       0.90120   0.87767   0.25356 
H          H       0.64059   0.36203   0.19468 
H          H       0.63797   0.27856   0.19468 
H          H       0.72144   0.35941   0.19468 
H          H       0.02605   0.97128   0.38396 
H          H       0.02872   0.05477   0.38396 
H          H       0.94523   0.97395   0.38396 
H          H       0.37781   0.23352   0.24635 
H          H       0.76648   0.14429   0.24635 
H          H       0.85571   0.62219   0.24635 
H          H       0.34980   0.26133   0.33102 
H          H       0.73867   0.08847   0.33102 
H          H       0.91153   0.65020   0.33102 
H          H       0.34367   0.31411   0.13752 
H          H       0.68589   0.02956   0.13752 
H          H       0.97044   0.65633   0.13752 
H          H       0.35341   0.30147   0.46810 
H          H       0.69853   0.05194   0.46810 
H          H       0.94806   0.64659   0.46810 
H          H       0.40073   0.34970   0.08035 
H          H       0.65030   0.05103   0.08035 
H          H       0.94897   0.59927   0.08035 
H          H       0.41915   0.34367   0.24720 
H          H       0.65633   0.07548   0.24720 
H          H       0.92452   0.58085   0.24720 
H          H       0.38645   0.34571   0.28174 
H          H       0.65429   0.04074   0.28174 
H          H       0.95926   0.61355   0.28174 
H          H       0.40410   0.30792   0.46636 
H          H       0.69208   0.09618   0.46636 
H          H       0.90382   0.59590   0.46636 
H          H       0.38141   0.27146   0.04625 
H          H       0.72854   0.10995   0.04625 
H          H       0.89005   0.61859   0.04625 
H          H       0.41432   0.29692   0.14922 
H          H       0.70308   0.11740   0.14922 
H          H       0.88260   0.58568   0.14922 
H          H       0.28290   0.26209   0.06817 
H          H       0.73791   0.02081   0.06817 
H          H       0.97919   0.71710   0.06817 
H          H       0.27248   0.28027   0.33310 
H          H       0.71973   0.99221   0.33310 
H          H       0.00779   0.72752   0.33310 
H          H       0.29935   0.30621   0.20044 
H          H       0.69379   0.99314   0.20044 
H          H       0.00686   0.70065   0.20044 
H          H       0.31113   0.29483   0.37446 
H          H       0.70517   0.01630   0.37446 
H          H       0.98370   0.68887   0.37446 
H          H       0.28070   0.22784   0.36685 
H          H       0.77216   0.05286   0.36685 
H          H       0.94714   0.71930   0.36685 
H          H       0.26860   0.21379   0.16747 
H          H       0.78621   0.05481   0.16747 
H          H       0.94519   0.73140   0.16747 
H          H       0.25044   0.22950   0.27611 
H          H       0.77050   0.02094   0.27611 
H          H       0.97906   0.74956   0.27611 
H          H       0.31996   0.25407   0.02027 
H          H       0.74593   0.06589   0.02027 
H          H       0.93411   0.68004   0.02027 
C          C       0.30252   0.15347   0.51055 
C          C       0.84653   0.14905   0.51055 
C          C       0.85095   0.69748   0.51055 
C          C       0.31795   0.13826   0.97787 
C          C       0.86174   0.17969   0.97787 
C          C       0.82031   0.68205   0.97787 
C          C       0.34826   0.15090   0.51544 
C          C       0.84910   0.19736   0.51544 
C          C       0.80264   0.65174   0.51544 
C          C       0.36395   0.17892   0.58932 
C          C       0.82108   0.18503   0.58932 
C          C       0.81497   0.63605   0.58932 
C          C       0.34786   0.19311   0.62432 
C          C       0.80689   0.15475   0.62432 
C          C       0.84525   0.65214   0.62432 
C          C       0.31878   0.18140   0.58225 
C          C       0.81860   0.13738   0.58225 
C          C       0.86262   0.68122   0.58225 
C          C       0.39624   0.19295   0.61880 
C          C       0.80705   0.20329   0.61880 
C          C       0.79671   0.60376   0.61880 
C          C       0.27031   0.13975   0.97684 
C          C       0.86025   0.13056   0.97684 
C          C       0.86944   0.72969   0.97684 
C          C       0.40817   0.17656   0.68628 
C          C       0.82344   0.23161   0.68628 
C          C       0.76839   0.59183   0.68628 
C          C       0.43872   0.18924   0.70621 
C          C       0.81076   0.24948   0.70621 
C          C       0.75052   0.56128   0.70621 
C          C       0.45794   0.21860   0.66024 
C          C       0.78140   0.23934   0.66024 
C          C       0.76066   0.54206   0.66024 
C          C       0.44606   0.23512   0.59368 
C          C       0.76488   0.21094   0.59368 
C          C       0.78906   0.55394   0.59368 
C          C       0.41554   0.22231   0.57170 
C          C       0.77769   0.19323   0.57170 
C          C       0.80677   0.58446   0.57170 
C          C       0.25097   0.10970   0.51041 
C          C       0.89030   0.14127   0.51041 
C          C       0.85873   0.74903   0.51041 
C          C       0.22050   0.09705   0.98564 
C          C       0.90295   0.12345   0.98564 
C          C       0.87655   0.77950   0.98564 
C          C       0.20874   0.11429   0.92785 
C          C       0.88571   0.09445   0.92785 
C          C       0.90555   0.79126   0.92785 
C          C       0.22804   0.14415   0.89211 
C          C       0.85585   0.08389   0.89211 
C          C       0.91611   0.77196   0.89211 
C          C       0.25848   0.15665   0.91516 
C          C       0.84335   0.10183   0.91516 
C          C       0.89817   0.74152   0.91516 
C          C       0.49021   0.23113   0.67641 
C          C       0.76887   0.25908   0.67641 
C          C       0.74092   0.50979   0.67641 
C          C       0.17652   0.10194   0.91002 
C          C       0.89806   0.07458   0.91002 
C          C       0.92542   0.82348   0.91002 
N          N       0.50815   0.25953   0.67679 
N          N       0.74047   0.24862   0.67679 
N          N       0.75138   0.49185   0.67679 
C          C       0.53979   0.27329   0.68467 
C          C       0.72671   0.26650   0.68467 
C          C       0.73350   0.46021   0.68467 
N          N       0.15850   0.07357   0.90506 
N          N       0.92643   0.08493   0.90506 
N          N       0.91507   0.84150   0.90506 
C          C       0.12686   0.05992   0.89612 
C          C       0.94008   0.06694   0.89612 
C          C       0.93306   0.87314   0.89612 
C          C       0.55509   0.26120   0.60603 
C          C       0.73880   0.29389   0.60603 
C          C       0.70611   0.44491   0.60603 
C          C       0.58600   0.27585   0.60896 
C          C       0.72415   0.31015   0.60896 
C          C       0.68985   0.41400   0.60896 
C          C       0.60233   0.30270   0.69253 
C          C       0.69730   0.29963   0.69253 
C          C       0.70037   0.39767   0.69253 
C          C       0.58676   0.31454   0.77173 
C          C       0.68546   0.27222   0.77173 
C          C       0.72778   0.41324   0.77173 
C          C       0.55587   0.30019   0.76545 
C          C       0.69981   0.25568   0.76545 
C          C       0.74432   0.44413   0.76545 
C          C       0.11151   0.07195   0.97484 
C          C       0.92805   0.03956   0.97484 
C          C       0.96044   0.88849   0.97484 
C          C       0.08061   0.05736   0.97097 
C          C       0.94264   0.02325   0.97097 
C          C       0.97675   0.91939   0.97097 
C          C       0.06433   0.03060   0.88658 
C          C       0.96940   0.03373   0.88658 
C          C       0.96627   0.93567   0.88658 
C          C       0.07994   0.01881   0.80734 
C          C       0.98119   0.06113   0.80734 
C          C       0.93887   0.92006   0.80734 
C          C       0.11081   0.03312   0.81436 
C          C       0.96688   0.07769   0.81436 
C          C       0.92231   0.88919   0.81436 
C          C       0.03129   0.01489   0.88354 
C          C       0.98511   0.01640   0.88354 
C          C       0.98360   0.96871   0.88354 
C          C       0.63537   0.31843   0.69505 
C          C       0.68157   0.31694   0.69505 
C          C       0.68306   0.36463   0.69505 
C          C       0.65196   0.34951   0.69524 
C          C       0.65049   0.30245   0.69524 
C          C       0.69755   0.34804   0.69524 
C          C       0.01470   0.98381   0.88330 
C          C       0.01619   0.03089   0.88330 
C          C       0.96911   0.98530   0.88330 
N          N       0.30924   0.20017   0.62231 
N          N       0.79983   0.10907   0.62231 
N          N       0.89093   0.69076   0.62231 
C          C       0.33330   0.22287   0.69211 
C          C       0.77713   0.11043   0.69211 
C          C       0.88957   0.66670   0.69211 
N          N       0.35704   0.21906   0.69829 
N          N       0.78094   0.13798   0.69829 
N          N       0.86202   0.64296   0.69829 
N          N       0.33442   0.24964   0.74227 
N          N       0.75036   0.08478   0.74227 
N          N       0.91522   0.66558   0.74227 
C          C       0.32477   0.26560   0.63539 
C          C       0.73440   0.05917   0.63539 
C          C       0.94083   0.67523   0.63539 
C          C       0.35029   0.29802   0.59919 
C          C       0.70198   0.05227   0.59919 
C          C       0.94773   0.64971   0.59919 
N          N       0.37895   0.30563   0.67437 
N          N       0.69437   0.07332   0.67437 
N          N       0.92668   0.62105   0.67437 
C          C       0.39726   0.33784   0.69599 
C          C       0.66216   0.05942   0.69599 
C          C       0.94058   0.60274   0.69599 
C          C       0.39546   0.29502   0.57839 
C          C       0.70498   0.10044   0.57839 
C          C       0.89956   0.60454   0.57839 
C          C       0.29382   0.26195   0.68117 
C          C       0.73805   0.03187   0.68117 
C          C       0.96813   0.70618   0.68117 
C          C       0.29442   0.28716   0.77919 
C          C       0.71284   0.00726   0.77919 
C          C       0.99274   0.70558   0.77919 
C          C       0.27233   0.23155   0.75307 
C          C       0.76845   0.04078   0.75307 
C          C       0.95922   0.72767   0.75307 
H          H       0.30677   0.11681   0.92047 
H          H       0.88319   0.18996   0.92047 
H          H       0.81004   0.69323   0.92047 
H          H       0.35952   0.13895   0.98395 
H          H       0.86105   0.22057   0.98395 
H          H       0.77943   0.64048   0.98395 
H          H       0.39382   0.15389   0.72318 
H          H       0.84611   0.23993   0.72318 
H          H       0.76007   0.60618   0.72318 
H          H       0.44738   0.17608   0.75764 
H          H       0.82392   0.27130   0.75764 
H          H       0.72870   0.55262   0.75764 
H          H       0.46041   0.25765   0.55447 
H          H       0.74235   0.20276   0.55447 
H          H       0.79724   0.53959   0.55447 
H          H       0.40707   0.23515   0.51434 
H          H       0.76485   0.17192   0.51434 
H          H       0.82808   0.59293   0.51434 
H          H       0.25930   0.09613   0.55993 
H          H       0.90387   0.16317   0.55993 
H          H       0.83683   0.74070   0.55993 
H          H       0.20611   0.07401   0.51567 
H          H       0.92599   0.13210   0.51567 
H          H       0.86790   0.79389   0.51567 
H          H       0.21956   0.15786   0.84631 
H          H       0.84214   0.06170   0.84631 
H          H       0.93830   0.78044   0.84631 
H          H       0.27281   0.17957   0.88466 
H          H       0.82043   0.09324   0.88466 
H          H       0.90676   0.72719   0.88466 
H          H       0.49872   0.21615   0.69246 
H          H       0.78385   0.28257   0.69246 
H          H       0.71743   0.50128   0.69246 
H          H       0.16813   0.11708   0.89748 
H          H       0.88292   0.05105   0.89748 
H          H       0.94895   0.83187   0.89748 
H          H       0.54322   0.24097   0.53777 
H          H       0.75903   0.30225   0.53777 
H          H       0.69775   0.45678   0.53777 
H          H       0.59705   0.26647   0.54191 
H          H       0.73353   0.33058   0.54191 
H          H       0.66942   0.40295   0.54191 
H          H       0.59834   0.33474   0.84041 
H          H       0.66526   0.26360   0.84041 
H          H       0.73640   0.40166   0.84041 
H          H       0.54439   0.30981   0.82622 
H          H       0.69019   0.23458   0.82622 
H          H       0.76542   0.45561   0.82622 
H          H       0.12331   0.09207   0.54403 
H          H       0.90793   0.03124   0.54403 
H          H       0.96876   0.87669   0.54403 
H          H       0.06951   0.06669   0.53808 
H          H       0.93331   0.00282   0.53808 
H          H       0.99718   0.93049   0.53808 
H          H       0.06838   0.99867   0.73813 
H          H       0.00133   0.06971   0.73813 
H          H       0.93029   0.93162   0.73813 
H          H       0.12233   0.02353   0.75356 
H          H       0.97647   0.09880   0.75356 
H          H       0.90120   0.87767   0.75356 
H          H       0.64059   0.36203   0.69468 
H          H       0.63797   0.27856   0.69468 
H          H       0.72144   0.35941   0.69468 
H          H       0.02605   0.97128   0.88396 
H          H       0.02872   0.05477   0.88396 
H          H       0.94523   0.97395   0.88396 
H          H       0.37781   0.23352   0.74634 
H          H       0.76648   0.14429   0.74634 
H          H       0.85571   0.62219   0.74634 
H          H       0.34980   0.26133   0.83102 
H          H       0.73867   0.08847   0.83102 
H          H       0.91153   0.65020   0.83102 
H          H       0.34367   0.31411   0.63752 
H          H       0.68589   0.02956   0.63752 
H          H       0.97044   0.65633   0.63752 
H          H       0.35341   0.30147   0.96810 
H          H       0.69853   0.05194   0.96810 
H          H       0.94806   0.64659   0.96810 
H          H       0.40073   0.34970   0.58035 
H          H       0.65030   0.05103   0.58035 
H          H       0.94897   0.59927   0.58035 
H          H       0.41915   0.34367   0.74720 
H          H       0.65633   0.07548   0.74720 
H          H       0.92452   0.58085   0.74720 
H          H       0.38645   0.34571   0.78175 
H          H       0.65429   0.04074   0.78175 
H          H       0.95926   0.61355   0.78175 
H          H       0.40410   0.30792   0.96636 
H          H       0.69208   0.09618   0.96636 
H          H       0.90382   0.59590   0.96636 
H          H       0.38141   0.27146   0.54625 
H          H       0.72854   0.10995   0.54625 
H          H       0.89005   0.61859   0.54625 
H          H       0.41432   0.29692   0.64922 
H          H       0.70308   0.11740   0.64922 
H          H       0.88260   0.58568   0.64922 
H          H       0.28290   0.26209   0.56817 
H          H       0.73791   0.02081   0.56817 
H          H       0.97919   0.71710   0.56817 
H          H       0.27248   0.28027   0.83310 
H          H       0.71973   0.99221   0.83310 
H          H       0.00779   0.72752   0.83310 
H          H       0.29935   0.30621   0.70044 
H          H       0.69379   0.99314   0.70044 
H          H       0.00686   0.70065   0.70044 
H          H       0.31113   0.29483   0.87446 
H          H       0.70517   0.01630   0.87446 
H          H       0.98370   0.68887   0.87446 
H          H       0.28070   0.22784   0.86685 
H          H       0.77216   0.05286   0.86685 
H          H       0.94714   0.71930   0.86685 
H          H       0.26860   0.21379   0.66747 
H          H       0.78621   0.05481   0.66747 
H          H       0.94519   0.73140   0.66747 
H          H       0.25044   0.22950   0.77611 
H          H       0.77050   0.02094   0.77611 
H          H       0.97906   0.74956   0.77611 
H          H       0.31996   0.25407   0.52028 
H          H       0.74593   0.06589   0.52028 
H          H       0.93411   0.68004   0.52028 
