data_crystal
 
_cell_length_a    51.39240
_cell_length_b    51.39240
_cell_length_c    8.33980
_cell_angle_alpha 90.00000
_cell_angle_beta  90.00000
_cell_angle_gamma 120.00000
 
_space_group_name_Hall 'P 1'
_space_group_name_H-M_alt  'P 1'
 
loop_
_symmetry_equiv_pos_as_xyz
 'x,y,z' 
 
loop_
_atom_site_label
_atom_site_type_symbol
_atom_site_fract_x
_atom_site_fract_y
_atom_site_fract_z
C          C       0.31838   0.14362   0.09235 
C          C       0.85638   0.17476   0.09235 
C          C       0.82524   0.68162   0.09235 
C          C       0.34845   0.15498   0.14032 
C          C       0.84502   0.19347   0.14032 
C          C       0.80653   0.65155   0.14032 
C          C       0.36355   0.18144   0.23267 
C          C       0.81856   0.18211   0.23267 
C          C       0.81789   0.63645   0.23267 
C          C       0.34714   0.19545   0.27511 
C          C       0.80455   0.15169   0.27511 
C          C       0.84831   0.65286   0.27511 
C          C       0.31813   0.18481   0.22586 
C          C       0.81519   0.13332   0.22586 
C          C       0.86668   0.68187   0.22586 
C          C       0.30237   0.15835   0.13536 
C          C       0.84165   0.14402   0.13536 
C          C       0.85598   0.69763   0.13536 
N          N       0.35563   0.21971   0.36808 
N          N       0.78029   0.13592   0.36808 
N          N       0.86408   0.64437   0.36808 
C          C       0.33154   0.22365   0.36706 
C          C       0.77635   0.10789   0.36706 
C          C       0.89211   0.66846   0.36706 
N          N       0.30792   0.20262   0.28194 
N          N       0.79738   0.10530   0.28194 
N          N       0.89470   0.69208   0.28194 
C          C       0.27021   0.14558   0.08966 
C          C       0.85442   0.12463   0.08966 
C          C       0.87537   0.72979   0.08966 
C          C       0.39553   0.19393   0.27700 
C          C       0.80607   0.20160   0.27700 
C          C       0.79840   0.60447   0.27700 
N          N       0.33112   0.24785   0.44920 
N          N       0.75215   0.08327   0.44920 
N          N       0.91673   0.66888   0.44920 
C          C       0.25847   0.16436   0.05222 
C          C       0.83564   0.09411   0.05222 
C          C       0.90589   0.74153   0.05222 
C          C       0.22831   0.15231   0.01041 
C          C       0.84769   0.07600   0.01041 
C          C       0.92400   0.77169   0.01041 
C          C       0.20917   0.12115   0.00389 
C          C       0.87885   0.08802   0.00389 
C          C       0.91198   0.79083   0.00389 
C          C       0.22071   0.10219   0.04033 
C          C       0.89781   0.11852   0.04033 
C          C       0.88148   0.77929   0.04033 
C          C       0.25085   0.11428   0.08351 
C          C       0.88572   0.13657   0.08351 
C          C       0.86343   0.74915   0.08351 
C          C       0.40579   0.17502   0.33525 
C          C       0.82498   0.23077   0.33525 
C          C       0.76923   0.59421   0.33525 
C          C       0.43605   0.18665   0.37402 
C          C       0.81335   0.24940   0.37402 
C          C       0.75060   0.56395   0.37402 
C          C       0.45657   0.21738   0.35574 
C          C       0.78262   0.23919   0.35574 
C          C       0.76081   0.54343   0.35574 
C          C       0.44641   0.23632   0.29638 
C          C       0.76368   0.21009   0.29638 
C          C       0.78991   0.55359   0.29638 
C          C       0.41622   0.22463   0.25582 
C          C       0.77537   0.19159   0.25582 
C          C       0.80841   0.58378   0.25582 
C          C       0.17716   0.10893   0.46503 
C          C       0.89107   0.06823   0.46503 
C          C       0.93177   0.82284   0.46503 
C          C       0.48856   0.22903   0.39262 
C          C       0.77097   0.25953   0.39262 
C          C       0.74047   0.51144   0.39262 
C          C       0.31620   0.26337   0.38148 
C          C       0.73663   0.05283   0.38148 
C          C       0.94717   0.68380   0.38148 
C          C       0.33296   0.29762   0.42799 
C          C       0.70238   0.03534   0.42799 
C          C       0.96466   0.66704   0.42799 
N          N       0.36265   0.31549   0.34388 
N          N       0.68451   0.04716   0.34388 
N          N       0.95284   0.63735   0.34388 
N          N       0.15991   0.08059   0.43318 
N          N       0.91941   0.07932   0.43318 
N          N       0.92068   0.84009   0.43318 
N          N       0.50670   0.25760   0.41326 
N          N       0.74240   0.24910   0.41326 
N          N       0.75090   0.49330   0.41326 
C          C       0.12814   0.06630   0.40541 
C          C       0.93370   0.06184   0.40541 
C          C       0.93816   0.87186   0.40541 
C          C       0.53845   0.27106   0.43868 
C          C       0.72894   0.26739   0.43868 
C          C       0.73261   0.46155   0.43868 
C          C       0.11033   0.07665   0.47804 
C          C       0.92335   0.03368   0.47804 
C          C       0.96632   0.88967   0.47804 
C          C       0.07917   0.06081   0.45924 
C          C       0.93919   0.01836   0.45924 
C          C       0.98164   0.92083   0.45924 
C          C       0.06509   0.03443   0.36633 
C          C       0.96557   0.03066   0.36633 
C          C       0.96934   0.93491   0.36633 
C          C       0.08313   0.02443   0.29211 
C          C       0.97557   0.05870   0.29211 
C          C       0.94130   0.91687   0.29211 
C          C       0.11428   0.04004   0.31340 
C          C       0.95996   0.07424   0.31340 
C          C       0.92576   0.88572   0.31340 
C          C       0.55523   0.25955   0.36591 
C          C       0.74045   0.29568   0.36591 
C          C       0.70432   0.44477   0.36591 
C          C       0.58643   0.27446   0.38238 
C          C       0.72554   0.31197   0.38238 
C          C       0.68803   0.41357   0.38238 
C          C       0.60154   0.30100   0.47354 
C          C       0.69900   0.30054   0.47354 
C          C       0.69946   0.39846   0.47354 
C          C       0.58449   0.31215   0.04792 
C          C       0.68785   0.27234   0.04792 
C          C       0.72766   0.41551   0.04792 
C          C       0.55332   0.29752   0.02846 
C          C       0.70248   0.25580   0.02846 
C          C       0.74420   0.44668   0.02846 
C          C       0.03172   0.01678   0.35361 
C          C       0.98322   0.01494   0.35361 
C          C       0.98506   0.96828   0.35361 
C          C       0.63495   0.31754   0.48488 
C          C       0.68246   0.31741   0.48488 
C          C       0.68259   0.36505   0.48488 
C          C       0.01473   0.03132   0.35249 
C          C       0.96868   0.98341   0.35249 
C          C       0.01659   0.98527   0.35249 
C          C       0.65089   0.30191   0.48589 
C          C       0.69809   0.34898   0.48589 
C          C       0.65102   0.34911   0.48589 
C          C       0.31305   0.31164   0.38666 
C          C       0.68836   0.00141   0.38666 
C          C       0.99859   0.68695   0.38666 
C          C       0.28020   0.29343   0.43903 
C          C       0.70657   0.98677   0.43903 
C          C       0.01323   0.71980   0.43903 
C          C       0.26511   0.26086   0.38457 
C          C       0.73914   0.00425   0.38457 
C          C       0.99575   0.73489   0.38457 
C          C       0.28303   0.24594   0.43415 
C          C       0.75406   0.03709   0.43415 
C          C       0.96291   0.71697   0.43415 
C          C       0.38320   0.30348   0.36346 
C          C       0.69652   0.07972   0.36346 
C          C       0.92028   0.61680   0.36346 
C          C       0.37859   0.34726   0.39638 
C          C       0.65274   0.03133   0.39638 
C          C       0.96867   0.62141   0.39638 
H          H       0.30655   0.12221   0.01760 
H          H       0.87779   0.18434   0.01760 
H          H       0.81566   0.69345   0.01760 
H          H       0.36093   0.14275   0.10449 
H          H       0.85725   0.21818   0.10449 
H          H       0.78182   0.63907   0.10449 
H          H       0.28480   0.19759   0.25232 
H          H       0.80241   0.08721   0.25232 
H          H       0.91279   0.71520   0.25232 
H          H       0.34228   0.25539   0.06760 
H          H       0.74461   0.08689   0.06760 
H          H       0.91311   0.65772   0.06760 
H          H       0.27364   0.18981   0.05575 
H          H       0.81019   0.08383   0.05575 
H          H       0.91617   0.72636   0.05575 
H          H       0.21911   0.16787   0.48130 
H          H       0.83213   0.05124   0.48130 
H          H       0.94876   0.78089   0.48130 
H          H       0.20547   0.07676   0.03478 
H          H       0.92324   0.12871   0.03478 
H          H       0.87129   0.79453   0.03478 
H          H       0.25971   0.09849   0.11393 
H          H       0.90151   0.16122   0.11393 
H          H       0.83878   0.74029   0.11393 
H          H       0.38938   0.14998   0.35122 
H          H       0.85002   0.23940   0.35122 
H          H       0.76060   0.61062   0.35122 
H          H       0.44420   0.17112   0.42088 
H          H       0.82888   0.27308   0.42088 
H          H       0.72692   0.55580   0.42088 
H          H       0.46284   0.26137   0.28111 
H          H       0.73863   0.20147   0.28111 
H          H       0.79853   0.53716   0.28111 
H          H       0.40841   0.24019   0.20520 
H          H       0.75981   0.16822   0.20520 
H          H       0.83178   0.59159   0.20520 
H          H       0.16724   0.12441   0.46263 
H          H       0.87559   0.04283   0.46263 
H          H       0.95717   0.83276   0.46263 
H          H       0.49764   0.21290   0.40332 
H          H       0.78710   0.28474   0.40332 
H          H       0.71526   0.50236   0.40332 
H          H       0.31682   0.26182   0.24530 
H          H       0.73818   0.05500   0.24530 
H          H       0.94500   0.68318   0.24530 
H          H       0.33717   0.29960   0.06283 
H          H       0.70040   0.03757   0.06283 
H          H       0.96243   0.66283   0.06283 
H          H       0.12132   0.09809   0.05280 
H          H       0.90191   0.02323   0.05280 
H          H       0.97677   0.87868   0.05280 
H          H       0.06483   0.06921   0.01948 
H          H       0.93079   0.99562   0.01948 
H          H       0.00438   0.93517   0.01948 
H          H       0.07235   0.00343   0.21385 
H          H       0.99657   0.06892   0.21385 
H          H       0.93108   0.92765   0.21385 
H          H       0.12841   0.03120   0.25507 
H          H       0.96880   0.09721   0.25507 
H          H       0.90279   0.87159   0.25507 
H          H       0.54338   0.23792   0.29295 
H          H       0.76208   0.30546   0.29295 
H          H       0.69454   0.45662   0.29295 
H          H       0.59995   0.26517   0.32166 
H          H       0.73483   0.33478   0.32166 
H          H       0.66522   0.40005   0.32166 
H          H       0.59610   0.33329   0.12484 
H          H       0.66671   0.26281   0.12484 
H          H       0.73719   0.40390   0.12484 
H          H       0.54001   0.30732   0.08644 
H          H       0.69268   0.23269   0.08644 
H          H       0.76731   0.45999   0.08644 
H          H       0.02653   0.05691   0.35064 
H          H       0.94309   0.96962   0.35064 
H          H       0.03038   0.97347   0.35064 
H          H       0.63821   0.27630   0.48754 
H          H       0.72370   0.36191   0.48754 
H          H       0.63809   0.36179   0.48754 
H          H       0.31370   0.31507   0.25135 
H          H       0.68493   0.99863   0.25135 
H          H       0.00137   0.68630   0.25135 
H          H       0.32264   0.33450   0.44729 
H          H       0.66550   0.98814   0.44729 
H          H       0.01186   0.67736   0.44729 
H          H       0.26737   0.30428   0.38723 
H          H       0.69572   0.96309   0.38723 
H          H       0.03691   0.73263   0.38723 
H          H       0.27885   0.29355   0.07544 
H          H       0.70645   0.98530   0.07544 
H          H       0.01470   0.72115   0.07544 
H          H       0.26282   0.25997   0.24843 
H          H       0.74003   0.00285   0.24843 
H          H       0.99715   0.73718   0.24843 
H          H       0.24180   0.24780   0.44054 
H          H       0.75220   0.99400   0.44054 
H          H       0.00600   0.75820   0.44054 
H          H       0.28209   0.24355   0.07025 
H          H       0.75645   0.03854   0.07025 
H          H       0.96146   0.71791   0.07025 
H          H       0.27160   0.22256   0.37831 
H          H       0.77744   0.04904   0.37831 
H          H       0.95096   0.72840   0.37831 
H          H       0.39165   0.30118   0.24082 
H          H       0.69882   0.09047   0.24082 
H          H       0.90953   0.60835   0.24082 
H          H       0.37074   0.28051   0.42361 
H          H       0.71949   0.09023   0.42361 
H          H       0.90977   0.62926   0.42361 
H          H       0.40310   0.31946   0.44109 
H          H       0.68054   0.08364   0.44109 
H          H       0.91636   0.59690   0.44109 
H          H       0.38896   0.36249   0.28781 
H          H       0.63751   0.02647   0.28781 
H          H       0.97353   0.61104   0.28781 
H          H       0.39707   0.35103   0.48481 
H          H       0.64897   0.04604   0.48481 
H          H       0.95396   0.60293   0.48481 
H          H       0.36201   0.35273   0.45698 
H          H       0.64727   0.00928   0.45698 
H          H       0.99072   0.63799   0.45698 
C          C       0.31838   0.14362   0.59235 
C          C       0.85638   0.17476   0.59235 
C          C       0.82524   0.68162   0.59235 
C          C       0.34845   0.15498   0.64032 
C          C       0.84502   0.19347   0.64032 
C          C       0.80653   0.65155   0.64032 
C          C       0.36355   0.18144   0.73267 
C          C       0.81856   0.18211   0.73267 
C          C       0.81789   0.63645   0.73267 
C          C       0.34714   0.19545   0.77511 
C          C       0.80455   0.15169   0.77511 
C          C       0.84831   0.65286   0.77511 
C          C       0.31813   0.18481   0.72586 
C          C       0.81519   0.13332   0.72586 
C          C       0.86668   0.68187   0.72586 
C          C       0.30237   0.15835   0.63536 
C          C       0.84165   0.14402   0.63536 
C          C       0.85598   0.69763   0.63536 
N          N       0.35563   0.21971   0.86808 
N          N       0.78029   0.13592   0.86808 
N          N       0.86408   0.64437   0.86808 
C          C       0.33154   0.22365   0.86705 
C          C       0.77635   0.10789   0.86705 
C          C       0.89211   0.66846   0.86705 
N          N       0.30792   0.20262   0.78193 
N          N       0.79738   0.10530   0.78193 
N          N       0.89470   0.69208   0.78193 
C          C       0.27021   0.14558   0.58966 
C          C       0.85442   0.12463   0.58966 
C          C       0.87537   0.72979   0.58966 
C          C       0.39553   0.19393   0.77700 
C          C       0.80607   0.20160   0.77700 
C          C       0.79840   0.60447   0.77700 
N          N       0.33112   0.24785   0.94920 
N          N       0.75215   0.08327   0.94920 
N          N       0.91673   0.66888   0.94920 
C          C       0.25847   0.16436   0.55222 
C          C       0.83564   0.09411   0.55222 
C          C       0.90589   0.74153   0.55222 
C          C       0.22831   0.15231   0.51041 
C          C       0.84769   0.07600   0.51041 
C          C       0.92400   0.77169   0.51041 
C          C       0.20917   0.12115   0.50389 
C          C       0.87885   0.08802   0.50389 
C          C       0.91198   0.79083   0.50389 
C          C       0.22071   0.10219   0.54033 
C          C       0.89781   0.11852   0.54033 
C          C       0.88148   0.77929   0.54033 
C          C       0.25085   0.11428   0.58351 
C          C       0.88572   0.13657   0.58351 
C          C       0.86343   0.74915   0.58351 
C          C       0.40579   0.17502   0.83525 
C          C       0.82498   0.23077   0.83525 
C          C       0.76923   0.59421   0.83525 
C          C       0.43605   0.18665   0.87402 
C          C       0.81335   0.24940   0.87402 
C          C       0.75060   0.56395   0.87402 
C          C       0.45657   0.21738   0.85574 
C          C       0.78262   0.23919   0.85574 
C          C       0.76081   0.54343   0.85574 
C          C       0.44641   0.23632   0.79638 
C          C       0.76368   0.21009   0.79638 
C          C       0.78991   0.55359   0.79638 
C          C       0.41622   0.22463   0.75582 
C          C       0.77537   0.19159   0.75582 
C          C       0.80841   0.58378   0.75582 
C          C       0.17716   0.10893   0.96503 
C          C       0.89107   0.06823   0.96503 
C          C       0.93177   0.82284   0.96503 
C          C       0.48856   0.22903   0.89262 
C          C       0.77097   0.25953   0.89262 
C          C       0.74047   0.51144   0.89262 
C          C       0.31620   0.26337   0.88148 
C          C       0.73663   0.05283   0.88148 
C          C       0.94717   0.68380   0.88148 
C          C       0.33296   0.29762   0.92799 
C          C       0.70238   0.03534   0.92799 
C          C       0.96466   0.66704   0.92799 
N          N       0.36265   0.31549   0.84387 
N          N       0.68451   0.04716   0.84387 
N          N       0.95284   0.63735   0.84387 
N          N       0.15991   0.08059   0.93318 
N          N       0.91941   0.07932   0.93318 
N          N       0.92068   0.84009   0.93318 
N          N       0.50670   0.25760   0.91326 
N          N       0.74240   0.24910   0.91326 
N          N       0.75090   0.49330   0.91326 
C          C       0.12814   0.06630   0.90541 
C          C       0.93370   0.06184   0.90541 
C          C       0.93816   0.87186   0.90541 
C          C       0.53845   0.27106   0.93868 
C          C       0.72894   0.26739   0.93868 
C          C       0.73261   0.46155   0.93868 
C          C       0.11033   0.07665   0.97804 
C          C       0.92335   0.03368   0.97804 
C          C       0.96632   0.88967   0.97804 
C          C       0.07917   0.06081   0.95924 
C          C       0.93919   0.01836   0.95924 
C          C       0.98164   0.92083   0.95924 
C          C       0.06509   0.03443   0.86633 
C          C       0.96557   0.03066   0.86633 
C          C       0.96934   0.93491   0.86633 
C          C       0.08313   0.02443   0.79211 
C          C       0.97557   0.05870   0.79211 
C          C       0.94130   0.91687   0.79211 
C          C       0.11428   0.04004   0.81340 
C          C       0.95996   0.07424   0.81340 
C          C       0.92576   0.88572   0.81340 
C          C       0.55523   0.25955   0.86591 
C          C       0.74045   0.29568   0.86591 
C          C       0.70432   0.44477   0.86591 
C          C       0.58643   0.27446   0.88238 
C          C       0.72554   0.31197   0.88238 
C          C       0.68803   0.41357   0.88238 
C          C       0.60154   0.30100   0.97354 
C          C       0.69900   0.30054   0.97354 
C          C       0.69946   0.39846   0.97354 
C          C       0.58449   0.31215   0.54792 
C          C       0.68785   0.27234   0.54792 
C          C       0.72766   0.41551   0.54792 
C          C       0.55332   0.29752   0.52846 
C          C       0.70248   0.25580   0.52846 
C          C       0.74420   0.44668   0.52846 
C          C       0.03172   0.01678   0.85361 
C          C       0.98322   0.01494   0.85361 
C          C       0.98506   0.96828   0.85361 
C          C       0.63495   0.31754   0.98488 
C          C       0.68246   0.31741   0.98488 
C          C       0.68259   0.36505   0.98488 
C          C       0.01473   0.03132   0.85249 
C          C       0.96868   0.98341   0.85249 
C          C       0.01659   0.98527   0.85249 
C          C       0.65089   0.30191   0.98589 
C          C       0.69809   0.34898   0.98589 
C          C       0.65102   0.34911   0.98589 
C          C       0.31305   0.31164   0.88666 
C          C       0.68836   0.00141   0.88666 
C          C       0.99859   0.68695   0.88666 
C          C       0.28020   0.29343   0.93903 
C          C       0.70657   0.98677   0.93903 
C          C       0.01323   0.71980   0.93903 
C          C       0.26511   0.26086   0.88456 
C          C       0.73914   0.00425   0.88456 
C          C       0.99575   0.73489   0.88456 
C          C       0.28303   0.24594   0.93415 
C          C       0.75406   0.03709   0.93415 
C          C       0.96291   0.71697   0.93415 
C          C       0.38320   0.30348   0.86346 
C          C       0.69652   0.07972   0.86346 
C          C       0.92028   0.61680   0.86346 
C          C       0.37859   0.34726   0.89638 
C          C       0.65274   0.03133   0.89638 
C          C       0.96867   0.62141   0.89638 
H          H       0.30655   0.12221   0.51760 
H          H       0.87779   0.18434   0.51760 
H          H       0.81566   0.69345   0.51760 
H          H       0.36093   0.14275   0.60449 
H          H       0.85725   0.21818   0.60449 
H          H       0.78182   0.63907   0.60449 
H          H       0.28480   0.19759   0.75232 
H          H       0.80241   0.08721   0.75232 
H          H       0.91279   0.71520   0.75232 
H          H       0.34228   0.25539   0.56760 
H          H       0.74461   0.08689   0.56760 
H          H       0.91311   0.65772   0.56760 
H          H       0.27364   0.18981   0.55575 
H          H       0.81019   0.08383   0.55575 
H          H       0.91617   0.72636   0.55575 
H          H       0.21911   0.16787   0.98130 
H          H       0.83213   0.05124   0.98130 
H          H       0.94876   0.78089   0.98130 
H          H       0.20547   0.07676   0.53478 
H          H       0.92324   0.12871   0.53478 
H          H       0.87129   0.79453   0.53478 
H          H       0.25971   0.09849   0.61393 
H          H       0.90151   0.16122   0.61393 
H          H       0.83878   0.74029   0.61393 
H          H       0.38938   0.14998   0.85121 
H          H       0.85002   0.23940   0.85121 
H          H       0.76060   0.61062   0.85121 
H          H       0.44420   0.17112   0.92088 
H          H       0.82888   0.27308   0.92088 
H          H       0.72692   0.55580   0.92088 
H          H       0.46284   0.26137   0.78111 
H          H       0.73863   0.20147   0.78111 
H          H       0.79853   0.53716   0.78111 
H          H       0.40841   0.24019   0.70520 
H          H       0.75981   0.16822   0.70520 
H          H       0.83178   0.59159   0.70520 
H          H       0.16724   0.12441   0.96263 
H          H       0.87559   0.04283   0.96263 
H          H       0.95717   0.83276   0.96263 
H          H       0.49764   0.21290   0.90332 
H          H       0.78710   0.28474   0.90332 
H          H       0.71526   0.50236   0.90332 
H          H       0.31682   0.26182   0.74530 
H          H       0.73818   0.05500   0.74530 
H          H       0.94500   0.68318   0.74530 
H          H       0.33717   0.29960   0.56283 
H          H       0.70040   0.03757   0.56283 
H          H       0.96243   0.66283   0.56283 
H          H       0.12132   0.09809   0.55280 
H          H       0.90191   0.02323   0.55280 
H          H       0.97677   0.87868   0.55280 
H          H       0.06483   0.06921   0.51948 
H          H       0.93079   0.99562   0.51948 
H          H       0.00438   0.93517   0.51948 
H          H       0.07235   0.00343   0.71385 
H          H       0.99657   0.06892   0.71385 
H          H       0.93108   0.92765   0.71385 
H          H       0.12841   0.03120   0.75507 
H          H       0.96880   0.09721   0.75507 
H          H       0.90279   0.87159   0.75507 
H          H       0.54338   0.23792   0.79295 
H          H       0.76208   0.30546   0.79295 
H          H       0.69454   0.45662   0.79295 
H          H       0.59995   0.26517   0.82166 
H          H       0.73483   0.33478   0.82166 
H          H       0.66522   0.40005   0.82166 
H          H       0.59610   0.33329   0.62484 
H          H       0.66671   0.26281   0.62484 
H          H       0.73719   0.40390   0.62484 
H          H       0.54001   0.30732   0.58644 
H          H       0.69268   0.23269   0.58644 
H          H       0.76731   0.45999   0.58644 
H          H       0.02653   0.05691   0.85063 
H          H       0.94309   0.96962   0.85063 
H          H       0.03038   0.97347   0.85063 
H          H       0.63821   0.27630   0.98754 
H          H       0.72370   0.36191   0.98754 
H          H       0.63809   0.36179   0.98754 
H          H       0.31370   0.31507   0.75135 
H          H       0.68493   0.99863   0.75135 
H          H       0.00137   0.68630   0.75135 
H          H       0.32264   0.33450   0.94729 
H          H       0.66550   0.98814   0.94729 
H          H       0.01186   0.67736   0.94729 
H          H       0.26737   0.30428   0.88723 
H          H       0.69572   0.96309   0.88723 
H          H       0.03691   0.73263   0.88723 
H          H       0.27885   0.29355   0.57544 
H          H       0.70645   0.98530   0.57544 
H          H       0.01470   0.72115   0.57544 
H          H       0.26282   0.25997   0.74843 
H          H       0.74003   0.00285   0.74843 
H          H       0.99715   0.73718   0.74843 
H          H       0.24180   0.24780   0.94054 
H          H       0.75220   0.99400   0.94054 
H          H       0.00600   0.75820   0.94054 
H          H       0.28209   0.24355   0.57025 
H          H       0.75645   0.03854   0.57025 
H          H       0.96146   0.71791   0.57025 
H          H       0.27160   0.22256   0.87831 
H          H       0.77744   0.04904   0.87831 
H          H       0.95096   0.72840   0.87831 
H          H       0.39165   0.30118   0.74082 
H          H       0.69882   0.09047   0.74082 
H          H       0.90953   0.60835   0.74082 
H          H       0.37074   0.28051   0.92361 
H          H       0.71949   0.09023   0.92361 
H          H       0.90977   0.62926   0.92361 
H          H       0.40310   0.31946   0.94109 
H          H       0.68054   0.08364   0.94109 
H          H       0.91636   0.59690   0.94109 
H          H       0.38896   0.36249   0.78781 
H          H       0.63751   0.02647   0.78781 
H          H       0.97353   0.61104   0.78781 
H          H       0.39707   0.35103   0.98481 
H          H       0.64897   0.04604   0.98481 
H          H       0.95396   0.60293   0.98481 
H          H       0.36201   0.35273   0.95698 
H          H       0.64727   0.00928   0.95698 
H          H       0.99072   0.63799   0.95698 
