data_crystal

_cell_length_a    52.25940
_cell_length_b    52.25940
_cell_length_c    10.96900
_cell_angle_alpha 90.00000
_cell_angle_beta  90.00000
_cell_angle_gamma 120.00000

_space_group_name_Hall 'P 1'
_space_group_name_H-M_alt  'P 1'

loop_
_symmetry_equiv_pos_as_xyz
'x,y,z' 

loop_
_atom_site_label
_atom_site_type_symbol
_atom_site_fract_x
_atom_site_fract_y
_atom_site_fract_z
C          C       0.31647   0.14356   0.08110 
C          C       0.85644   0.17291   0.08110 
C          C       0.82709   0.68353   0.08110 
C          C       0.34742   0.15811   0.09416 
C          C       0.84189   0.18931   0.09416 
C          C       0.81069   0.65258   0.09416 
C          C       0.36471   0.18917   0.08477 
C          C       0.81083   0.17554   0.08477 
C          C       0.82446   0.63529   0.08477 
C          C       0.34978   0.20467   0.05823 
C          C       0.79533   0.14511   0.05823 
C          C       0.85489   0.65022   0.05823 
C          C       0.31953   0.19045   0.05115 
C          C       0.80955   0.12908   0.05115 
C          C       0.87092   0.68047   0.05115 
C          C       0.30197   0.15974   0.05982 
C          C       0.84026   0.14223   0.05982 
C          C       0.85777   0.69803   0.05982 
N          N       0.36039   0.23559   0.06263 
N          N       0.76441   0.12480   0.06263 
N          N       0.87520   0.63961   0.06263 
C          C       0.33404   0.23672   0.05191 
C          C       0.76328   0.09732   0.05191 
C          C       0.90268   0.66596   0.05191 
N          N       0.30984   0.21143   0.04164 
N          N       0.78857   0.09841   0.04164 
N          N       0.90159   0.69016   0.04164 
C          C       0.26945   0.14476   0.04890 
C          C       0.85524   0.12469   0.04890 
C          C       0.87531   0.73055   0.04890 
C          C       0.39677   0.20398   0.11084 
C          C       0.79602   0.19279   0.11084 
C          C       0.80721   0.60323   0.11084 
C          C       0.25631   0.15123   0.45109 
C          C       0.84877   0.10508   0.45109 
C          C       0.89492   0.74369   0.45109 
C          C       0.22557   0.13690   0.44023 
C          C       0.86310   0.08867   0.44023 
C          C       0.91133   0.77443   0.44023 
C          C       0.20745   0.11600   0.02735 
C          C       0.88400   0.09145   0.02735 
C          C       0.90855   0.79255   0.02735 
C          C       0.22062   0.10955   0.12544 
C          C       0.89045   0.11107   0.12544 
C          C       0.88893   0.77938   0.12544 
C          C       0.25137   0.12371   0.13567 
C          C       0.87629   0.12766   0.13567 
C          C       0.87234   0.74863   0.13567 
C          C       0.40683   0.19737   0.21845 
C          C       0.80263   0.20946   0.21845 
C          C       0.79054   0.59317   0.21845 
C          C       0.43710   0.21024   0.24168 
C          C       0.78976   0.22686   0.24168 
C          C       0.77314   0.56290   0.24168 
C          C       0.45784   0.23012   0.15829 
C          C       0.76988   0.22772   0.15829 
C          C       0.77228   0.54216   0.15829 
C          C       0.44778   0.23645   0.04990 
C          C       0.76355   0.21133   0.04990 
C          C       0.78867   0.55222   0.04990 
C          C       0.41754   0.22315   0.02596 
C          C       0.77685   0.19439   0.02596 
C          C       0.80561   0.58246   0.02596 
C          C       0.17503   0.10123   0.01405 
C          C       0.89877   0.07380   0.01405 
C          C       0.92620   0.82497   0.01405 
C          C       0.48970   0.24355   0.18477 
C          C       0.75645   0.24615   0.18477 
C          C       0.75385   0.51030   0.18477 
N          N       0.15772   0.08270   0.09607 
N          N       0.91730   0.07502   0.09607 
N          N       0.92498   0.84228   0.09607 
N          N       0.50926   0.26144   0.10716 
N          N       0.73856   0.24782   0.10716 
N          N       0.75218   0.49074   0.10716 
C          C       0.12593   0.06683   0.09585 
C          C       0.93317   0.05910   0.09585 
C          C       0.94090   0.87407   0.09585 
C          C       0.54086   0.27575   0.11875 
C          C       0.72425   0.26511   0.11875 
C          C       0.73489   0.45914   0.11875 
C          C       0.10901   0.07261   0.01195 
C          C       0.92739   0.03640   0.01195 
C          C       0.96360   0.89099   0.01195 
C          C       0.07816   0.05641   0.01646 
C          C       0.94359   0.02175   0.01646 
C          C       0.97825   0.92184   0.01646 
C          C       0.06368   0.03415   0.10403 
C          C       0.96585   0.02953   0.10403 
C          C       0.97047   0.93632   0.10403 
C          C       0.08051   0.02854   0.18807 
C          C       0.97146   0.05197   0.18807 
C          C       0.94803   0.91949   0.18807 
C          C       0.11135   0.04491   0.18432 
C          C       0.95509   0.06644   0.18432 
C          C       0.93356   0.88865   0.18432 
C          C       0.55504   0.26791   0.20835 
C          C       0.73209   0.28713   0.20835 
C          C       0.71287   0.44496   0.20835 
C          C       0.58589   0.28216   0.21287 
C          C       0.71784   0.30373   0.21287 
C          C       0.69627   0.41411   0.21287 
C          C       0.60304   0.30449   0.12884 
C          C       0.69551   0.29855   0.12884 
C          C       0.70145   0.39696   0.12884 
C          C       0.58891   0.31229   0.03977 
C          C       0.68771   0.27662   0.03977 
C          C       0.72338   0.41109   0.03977 
C          C       0.55810   0.29786   0.03445 
C          C       0.70214   0.26024   0.03445 
C          C       0.73976   0.44190   0.03445 
C          C       0.03106   0.01667   0.10690 
C          C       0.98333   0.01439   0.10690 
C          C       0.98561   0.96894   0.10690 
C          C       0.63563   0.31927   0.13240 
C          C       0.68073   0.31636   0.13240 
C          C       0.68364   0.36437   0.13240 
C          C       0.01431   0.03089   0.10705 
C          C       0.96911   0.98342   0.10705 
C          C       0.01658   0.98569   0.10705 
C          C       0.64978   0.30246   0.13256 
C          C       0.69754   0.34732   0.13256 
C          C       0.65268   0.35022   0.13256 
C          C       0.38224   0.25920   0.48594 
C          C       0.74080   0.12304   0.48594 
C          C       0.87696   0.61776   0.48594 
C          C       0.36838   0.27876   0.45091 
C          C       0.72124   0.08962   0.45091 
C          C       0.91038   0.63162   0.45091 
N          N       0.33796   0.26269   0.49618 
N          N       0.73731   0.07527   0.49618 
N          N       0.92473   0.66204   0.49618 
C          C       0.38522   0.31126   0.49996 
C          C       0.68874   0.07396   0.49996 
C          C       0.92604   0.61478   0.49996 
C          C       0.36959   0.32807   0.45580 
C          C       0.67193   0.04152   0.45580 
C          C       0.95848   0.63041   0.45580 
C          C       0.41751   0.32792   0.45389 
C          C       0.67208   0.08959   0.45389 
C          C       0.91041   0.58249   0.45389 
C          C       0.38546   0.31172   0.13961 
C          C       0.68828   0.07374   0.13961 
C          C       0.92626   0.61454   0.13961 
H          H       0.30389   0.11971   0.08850 
H          H       0.88029   0.18418   0.08850 
H          H       0.81582   0.69611   0.08850 
H          H       0.35783   0.14509   0.11309 
H          H       0.85491   0.21274   0.11309 
H          H       0.78726   0.64217   0.11309 
H          H       0.26985   0.16709   0.38213 
H          H       0.83291   0.10276   0.38213 
H          H       0.89724   0.73015   0.38213 
H          H       0.21593   0.14213   0.36358 
H          H       0.85787   0.07380   0.36358 
H          H       0.92620   0.78407   0.36358 
H          H       0.20722   0.09357   0.19423 
H          H       0.90643   0.11365   0.19423 
H          H       0.88635   0.79278   0.19423 
H          H       0.26106   0.11851   0.21222 
H          H       0.88149   0.14255   0.21222 
H          H       0.85745   0.73894   0.21222 
H          H       0.39122   0.18221   0.28460 
H          H       0.81779   0.20901   0.28460 
H          H       0.79099   0.60878   0.28460 
H          H       0.44431   0.20458   0.32476 
H          H       0.79542   0.23973   0.32476 
H          H       0.76027   0.55569   0.32476 
H          H       0.46323   0.25122   0.48243 
H          H       0.74878   0.21201   0.48243 
H          H       0.78799   0.53677   0.48243 
H          H       0.41051   0.22709   0.43925 
H          H       0.77291   0.18342   0.43925 
H          H       0.81658   0.58949   0.43925 
H          H       0.16618   0.10603   0.43387 
H          H       0.89397   0.06015   0.43387 
H          H       0.93985   0.83382   0.43387 
H          H       0.49625   0.23834   0.27046 
H          H       0.76166   0.25791   0.27046 
H          H       0.74209   0.50375   0.27046 
H          H       0.11916   0.08958   0.44329 
H          H       0.91042   0.02958   0.44329 
H          H       0.97042   0.88084   0.44329 
H          H       0.06556   0.06098   0.45040 
H          H       0.93902   0.00458   0.45040 
H          H       0.99542   0.93444   0.45040 
H          H       0.06978   0.01168   0.25728 
H          H       0.98832   0.05810   0.25728 
H          H       0.94190   0.93022   0.25728 
H          H       0.12401   0.04041   0.25033 
H          H       0.95959   0.08360   0.25033 
H          H       0.91640   0.87599   0.25033 
H          H       0.54270   0.25063   0.27385 
H          H       0.74937   0.29207   0.27385 
H          H       0.70793   0.45730   0.27385 
H          H       0.59641   0.27586   0.28240 
H          H       0.72414   0.32055   0.28240 
H          H       0.67945   0.40359   0.28240 
H          H       0.60172   0.32917   0.47296 
H          H       0.67083   0.27255   0.47296 
H          H       0.72745   0.39828   0.47296 
H          H       0.54754   0.30388   0.46409 
H          H       0.69612   0.24366   0.46409 
H          H       0.75634   0.45246   0.46409 
H          H       0.02540   0.05482   0.10628 
H          H       0.94518   0.97058   0.10628 
H          H       0.02942   0.97460   0.10628 
H          H       0.63670   0.27855   0.13155 
H          H       0.72145   0.35815   0.13155 
H          H       0.64185   0.36330   0.13155 
H          H       0.38578   0.24976   0.40125 
H          H       0.75024   0.13602   0.40125 
H          H       0.86398   0.61422   0.40125 
H          H       0.40333   0.27127   0.03641 
H          H       0.72873   0.13206   0.03641 
H          H       0.86794   0.59667   0.03641 
H          H       0.32067   0.26500   0.46081 
H          H       0.73500   0.05567   0.46081 
H          H       0.94433   0.67933   0.46081 
H          H       0.34678   0.31795   0.49254 
H          H       0.68205   0.02883   0.49254 
H          H       0.97117   0.65322   0.49254 
H          H       0.36828   0.32804   0.35519 
H          H       0.67196   0.04024   0.35519 
H          H       0.95976   0.63172   0.35519 
H          H       0.38174   0.35146   0.48670 
H          H       0.64854   0.03028   0.48670 
H          H       0.96972   0.61826   0.48670 
H          H       0.41851   0.32639   0.35374 
H          H       0.67361   0.09212   0.35374 
H          H       0.90788   0.58149   0.35374 
H          H       0.43095   0.31910   0.49467 
H          H       0.68090   0.11185   0.49467 
H          H       0.88815   0.56905   0.49467 
H          H       0.42837   0.35170   0.47866 
H          H       0.64830   0.07667   0.47866 
H          H       0.92333   0.57163   0.47866 
H          H       0.39742   0.33486   0.17339 
H          H       0.66514   0.06256   0.17339 
H          H       0.93744   0.60258   0.17339 
H          H       0.39664   0.30006   0.17608 
H          H       0.69994   0.09658   0.17608 
H          H       0.90342   0.60336   0.17608 
H          H       0.36251   0.30088   0.17513 
H          H       0.69912   0.06163   0.17513 
H          H       0.93837   0.63749   0.17513 
H          H       0.36740   0.27924   0.35032 
H          H       0.72076   0.08816   0.35032 
H          H       0.91184   0.63260   0.35032 
C          C       0.31647   0.14356   0.58110 
C          C       0.85644   0.17291   0.58110 
C          C       0.82709   0.68353   0.58110 
C          C       0.34742   0.15811   0.59416 
C          C       0.84189   0.18931   0.59416 
C          C       0.81069   0.65258   0.59416 
C          C       0.36471   0.18917   0.58477 
C          C       0.81083   0.17554   0.58477 
C          C       0.82446   0.63529   0.58477 
C          C       0.34978   0.20467   0.55823 
C          C       0.79533   0.14511   0.55823 
C          C       0.85489   0.65022   0.55823 
C          C       0.31953   0.19045   0.55115 
C          C       0.80955   0.12908   0.55115 
C          C       0.87092   0.68047   0.55115 
C          C       0.30197   0.15974   0.55982 
C          C       0.84026   0.14223   0.55982 
C          C       0.85777   0.69803   0.55982 
N          N       0.36039   0.23559   0.56263 
N          N       0.76441   0.12480   0.56263 
N          N       0.87520   0.63961   0.56263 
C          C       0.33404   0.23672   0.55191 
C          C       0.76328   0.09732   0.55191 
C          C       0.90268   0.66596   0.55191 
N          N       0.30984   0.21143   0.54164 
N          N       0.78857   0.09841   0.54164 
N          N       0.90159   0.69016   0.54164 
C          C       0.26945   0.14476   0.54890 
C          C       0.85524   0.12469   0.54890 
C          C       0.87531   0.73055   0.54890 
C          C       0.39677   0.20398   0.61084 
C          C       0.79602   0.19279   0.61084 
C          C       0.80721   0.60323   0.61084 
C          C       0.25631   0.15123   0.95108 
C          C       0.84877   0.10508   0.95108 
C          C       0.89492   0.74369   0.95108 
C          C       0.22557   0.13690   0.94023 
C          C       0.86310   0.08867   0.94023 
C          C       0.91133   0.77443   0.94023 
C          C       0.20745   0.11600   0.52734 
C          C       0.88400   0.09145   0.52734 
C          C       0.90855   0.79255   0.52734 
C          C       0.22062   0.10955   0.62544 
C          C       0.89045   0.11107   0.62544 
C          C       0.88893   0.77938   0.62544 
C          C       0.25137   0.12371   0.63567 
C          C       0.87629   0.12766   0.63567 
C          C       0.87234   0.74863   0.63567 
C          C       0.40683   0.19737   0.71845 
C          C       0.80263   0.20946   0.71845 
C          C       0.79054   0.59317   0.71845 
C          C       0.43710   0.21024   0.74168 
C          C       0.78976   0.22686   0.74168 
C          C       0.77314   0.56290   0.74168 
C          C       0.45784   0.23012   0.65829 
C          C       0.76988   0.22772   0.65829 
C          C       0.77228   0.54216   0.65829 
C          C       0.44778   0.23645   0.54990 
C          C       0.76355   0.21133   0.54990 
C          C       0.78867   0.55222   0.54990 
C          C       0.41754   0.22315   0.52595 
C          C       0.77685   0.19439   0.52595 
C          C       0.80561   0.58246   0.52595 
C          C       0.17503   0.10123   0.51406 
C          C       0.89877   0.07380   0.51406 
C          C       0.92620   0.82497   0.51406 
C          C       0.48970   0.24355   0.68477 
C          C       0.75645   0.24615   0.68477 
C          C       0.75385   0.51030   0.68477 
N          N       0.15772   0.08270   0.59606 
N          N       0.91730   0.07502   0.59606 
N          N       0.92498   0.84228   0.59606 
N          N       0.50926   0.26144   0.60716 
N          N       0.73856   0.24782   0.60716 
N          N       0.75218   0.49074   0.60716 
C          C       0.12593   0.06683   0.59585 
C          C       0.93317   0.05910   0.59585 
C          C       0.94090   0.87407   0.59585 
C          C       0.54086   0.27575   0.61875 
C          C       0.72425   0.26511   0.61875 
C          C       0.73489   0.45914   0.61875 
C          C       0.10901   0.07261   0.51195 
C          C       0.92739   0.03640   0.51195 
C          C       0.96360   0.89099   0.51195 
C          C       0.07816   0.05641   0.51645 
C          C       0.94359   0.02175   0.51645 
C          C       0.97825   0.92184   0.51645 
C          C       0.06368   0.03415   0.60403 
C          C       0.96585   0.02953   0.60403 
C          C       0.97047   0.93632   0.60403 
C          C       0.08051   0.02854   0.68807 
C          C       0.97146   0.05197   0.68807 
C          C       0.94803   0.91949   0.68807 
C          C       0.11135   0.04491   0.68432 
C          C       0.95509   0.06644   0.68432 
C          C       0.93356   0.88865   0.68432 
C          C       0.55504   0.26791   0.70835 
C          C       0.73209   0.28713   0.70835 
C          C       0.71287   0.44496   0.70835 
C          C       0.58589   0.28216   0.71287 
C          C       0.71784   0.30373   0.71287 
C          C       0.69627   0.41411   0.71287 
C          C       0.60304   0.30449   0.62884 
C          C       0.69551   0.29855   0.62884 
C          C       0.70145   0.39696   0.62884 
C          C       0.58891   0.31229   0.53977 
C          C       0.68771   0.27662   0.53977 
C          C       0.72338   0.41109   0.53977 
C          C       0.55810   0.29786   0.53446 
C          C       0.70214   0.26024   0.53446 
C          C       0.73976   0.44190   0.53446 
C          C       0.03106   0.01667   0.60690 
C          C       0.98333   0.01439   0.60690 
C          C       0.98561   0.96894   0.60690 
C          C       0.63563   0.31927   0.63240 
C          C       0.68073   0.31636   0.63240 
C          C       0.68364   0.36437   0.63240 
C          C       0.01431   0.03089   0.60705 
C          C       0.96911   0.98342   0.60705 
C          C       0.01658   0.98569   0.60705 
C          C       0.64978   0.30246   0.63256 
C          C       0.69754   0.34732   0.63256 
C          C       0.65268   0.35022   0.63256 
C          C       0.38224   0.25920   0.98594 
C          C       0.74080   0.12304   0.98594 
C          C       0.87696   0.61776   0.98594 
C          C       0.36838   0.27876   0.95091 
C          C       0.72124   0.08962   0.95091 
C          C       0.91038   0.63162   0.95091 
N          N       0.33796   0.26269   0.99618 
N          N       0.73731   0.07527   0.99618 
N          N       0.92473   0.66204   0.99618 
C          C       0.38522   0.31126   0.99996 
C          C       0.68874   0.07396   0.99996 
C          C       0.92604   0.61478   0.99996 
C          C       0.36959   0.32807   0.95580 
C          C       0.67193   0.04152   0.95580 
C          C       0.95848   0.63041   0.95580 
C          C       0.41751   0.32792   0.95389 
C          C       0.67208   0.08959   0.95389 
C          C       0.91041   0.58249   0.95389 
C          C       0.38546   0.31172   0.63961 
C          C       0.68828   0.07374   0.63961 
C          C       0.92626   0.61454   0.63961 
H          H       0.30389   0.11971   0.58849 
H          H       0.88029   0.18418   0.58849 
H          H       0.81582   0.69611   0.58849 
H          H       0.35783   0.14509   0.61309 
H          H       0.85491   0.21274   0.61309 
H          H       0.78726   0.64217   0.61309 
H          H       0.26985   0.16709   0.88213 
H          H       0.83291   0.10276   0.88213 
H          H       0.89724   0.73015   0.88213 
H          H       0.21593   0.14213   0.86359 
H          H       0.85787   0.07380   0.86359 
H          H       0.92620   0.78407   0.86359 
H          H       0.20722   0.09357   0.69423 
H          H       0.90643   0.11365   0.69423 
H          H       0.88635   0.79278   0.69423 
H          H       0.26106   0.11851   0.71222 
H          H       0.88149   0.14255   0.71222 
H          H       0.85745   0.73894   0.71222 
H          H       0.39122   0.18221   0.78460 
H          H       0.81779   0.20901   0.78460 
H          H       0.79099   0.60878   0.78460 
H          H       0.44431   0.20458   0.82476 
H          H       0.79542   0.23973   0.82476 
H          H       0.76027   0.55569   0.82476 
H          H       0.46323   0.25122   0.98243 
H          H       0.74878   0.21201   0.98243 
H          H       0.78799   0.53677   0.98243 
H          H       0.41051   0.22709   0.93925 
H          H       0.77291   0.18342   0.93925 
H          H       0.81658   0.58949   0.93925 
H          H       0.16618   0.10603   0.93387 
H          H       0.89397   0.06015   0.93387 
H          H       0.93985   0.83382   0.93387 
H          H       0.49625   0.23834   0.77046 
H          H       0.76166   0.25791   0.77046 
H          H       0.74209   0.50375   0.77046 
H          H       0.11916   0.08958   0.94329 
H          H       0.91042   0.02958   0.94329 
H          H       0.97042   0.88084   0.94329 
H          H       0.06556   0.06098   0.95040 
H          H       0.93902   0.00458   0.95040 
H          H       0.99542   0.93444   0.95040 
H          H       0.06978   0.01168   0.75728 
H          H       0.98832   0.05810   0.75728 
H          H       0.94190   0.93022   0.75728 
H          H       0.12401   0.04041   0.75033 
H          H       0.95959   0.08360   0.75033 
H          H       0.91640   0.87599   0.75033 
H          H       0.54270   0.25063   0.77385 
H          H       0.74937   0.29207   0.77385 
H          H       0.70793   0.45730   0.77385 
H          H       0.59641   0.27586   0.78240 
H          H       0.72414   0.32055   0.78240 
H          H       0.67945   0.40359   0.78240 
H          H       0.60172   0.32917   0.97295 
H          H       0.67083   0.27255   0.97295 
H          H       0.72745   0.39828   0.97295 
H          H       0.54754   0.30388   0.96409 
H          H       0.69612   0.24366   0.96409 
H          H       0.75634   0.45246   0.96409 
H          H       0.02540   0.05482   0.60628 
H          H       0.94518   0.97058   0.60628 
H          H       0.02942   0.97460   0.60628 
H          H       0.63670   0.27855   0.63155 
H          H       0.72145   0.35815   0.63155 
H          H       0.64185   0.36330   0.63155 
H          H       0.38578   0.24976   0.90126 
H          H       0.75024   0.13602   0.90126 
H          H       0.86398   0.61422   0.90126 
H          H       0.40333   0.27127   0.53641 
H          H       0.72873   0.13206   0.53641 
H          H       0.86794   0.59667   0.53641 
H          H       0.32067   0.26500   0.96081 
H          H       0.73500   0.05567   0.96081 
H          H       0.94433   0.67933   0.96081 
H          H       0.34678   0.31795   0.99254 
H          H       0.68205   0.02883   0.99254 
H          H       0.97117   0.65322   0.99254 
H          H       0.36828   0.32804   0.85519 
H          H       0.67196   0.04024   0.85519 
H          H       0.95976   0.63172   0.85519 
H          H       0.38174   0.35146   0.98670 
H          H       0.64854   0.03028   0.98670 
H          H       0.96972   0.61826   0.98670 
H          H       0.41851   0.32639   0.85374 
H          H       0.67361   0.09212   0.85374 
H          H       0.90788   0.58149   0.85374 
H          H       0.43095   0.31910   0.99467 
H          H       0.68090   0.11185   0.99467 
H          H       0.88815   0.56905   0.99467 
H          H       0.42837   0.35170   0.97866 
H          H       0.64830   0.07667   0.97866 
H          H       0.92333   0.57163   0.97866 
H          H       0.39742   0.33486   0.67339 
H          H       0.66514   0.06256   0.67339 
H          H       0.93744   0.60258   0.67339 
H          H       0.39664   0.30006   0.67608 
H          H       0.69994   0.09658   0.67608 
H          H       0.90342   0.60336   0.67608 
H          H       0.36251   0.30088   0.67512 
H          H       0.69912   0.06163   0.67512 
H          H       0.93837   0.63749   0.67512 
H          H       0.36740   0.27924   0.85032 
H          H       0.72076   0.08816   0.85032 
H          H       0.91184   0.63260   0.85032 
