data_crystal

_cell_length_a    51.93830
_cell_length_b    51.93830
_cell_length_c    9.55640
_cell_angle_alpha 90.00000
_cell_angle_beta  90.00000
_cell_angle_gamma 120.00000

_symmetry_space_group_name_Hall 'P 1'
_symmetry_space_group_name_H-M  'P 1'

loop_
_symmetry_equiv_pos_as_xyz
 'x,y,z'

loop_
_atom_site_label
_atom_site_type_symbol
_atom_site_fract_x
_atom_site_fract_y
_atom_site_fract_z
C          C       0.31309   0.14301   0.34070
C          C       0.85699   0.17008   0.34070
C          C       0.82992   0.68691   0.34070
C          C       0.10946   0.07303   0.47878
C          C       0.92697   0.03643   0.47878
C          C       0.96357   0.89054   0.47878
C          C       0.34399   0.15515   0.32268
C          C       0.84485   0.18884   0.32268
C          C       0.81116   0.65601   0.32268
C          C       0.07851   0.05745   0.49029
C          C       0.94255   0.02106   0.49029
C          C       0.97894   0.92149   0.49029
C          C       0.36447   0.18123   0.39440
C          C       0.81877   0.18324   0.39440
C          C       0.81676   0.63553   0.39440
C          C       0.06423   0.03341   0.08335
C          C       0.96659   0.03082   0.08335
C          C       0.96918   0.93577   0.08335
C          C       0.35265   0.19421   0.48312
C          C       0.80579   0.15844   0.48312
C          C       0.84156   0.64735   0.48312
C          C       0.08155   0.02527   0.16483
C          C       0.97473   0.05628   0.16483
C          C       0.94372   0.91845   0.16483
C          C       0.32271   0.18252   0.00010
C          C       0.81748   0.14019   0.00010
C          C       0.85981   0.67729   0.00010
C          C       0.11253   0.04083   0.15300
C          C       0.95917   0.07170   0.15300
C          C       0.92830   0.88747   0.15300
C          C       0.30192   0.15671   0.43063
C          C       0.84329   0.14521   0.43063
C          C       0.85479   0.69808   0.43063
C          C       0.55686   0.26152   0.35254
C          C       0.73848   0.29534   0.35254
C          C       0.70466   0.44314   0.35254
N          N       0.36707   0.21787   0.06739
N          N       0.78213   0.14920   0.06739
N          N       0.85080   0.63293   0.06739
C          C       0.58782   0.27669   0.34124
C          C       0.72331   0.31113   0.34124
C          C       0.68887   0.41218   0.34124
C          C       0.34503   0.21980   0.13304
C          C       0.78020   0.12523   0.13304
C          C       0.87477   0.65497   0.13304
C          C       0.60242   0.30069   0.24818
C          C       0.69931   0.30173   0.24818
C          C       0.69827   0.39758   0.24818
N          N       0.31728   0.19839   0.09494
N          N       0.80161   0.11889   0.09494
N          N       0.88111   0.68272   0.09494
C          C       0.58542   0.30916   0.16626
C          C       0.69084   0.27626   0.16626
C          C       0.72374   0.41458   0.16626
C          C       0.26959   0.14385   0.45185
C          C       0.85615   0.12574   0.45185
C          C       0.87426   0.73041   0.45185
C          C       0.55444   0.29399   0.17781
C          C       0.70601   0.26045   0.17781
C          C       0.73955   0.44556   0.17781
C          C       0.39685   0.19370   0.37685
C          C       0.80630   0.20315   0.37685
C          C       0.79685   0.60315   0.37685
C          C       0.03132   0.01631   0.09141
C          C       0.98369   0.01501   0.09141
C          C       0.98499   0.96868   0.09141
C          C       0.25646   0.16170   0.43958
C          C       0.83830   0.09476   0.43958
C          C       0.90524   0.74354   0.43958
C          C       0.63534   0.31740   0.24045
C          C       0.68260   0.31794   0.24045
C          C       0.68206   0.36466   0.24045
C          C       0.22583   0.14941   0.45711
C          C       0.85059   0.07642   0.45711
C          C       0.92358   0.77417   0.45711
C          C       0.01489   0.03108   0.09194
C          C       0.96892   0.98381   0.09194
C          C       0.01619   0.98511   0.09194
C          C       0.20784   0.11916   0.48918
C          C       0.88084   0.08868   0.48918
C          C       0.91132   0.79216   0.48918
C          C       0.65139   0.30224   0.23995
C          C       0.69776   0.34915   0.23995
C          C       0.65085   0.34861   0.23995
C          C       0.22102   0.10133   0.00328
C          C       0.89867   0.11969   0.00328
C          C       0.88031   0.77898   0.00328
N          N       0.35066   0.24223   0.23482
N          N       0.75777   0.10843   0.23482
N          N       0.89157   0.64934   0.23482
C          C       0.25162   0.11356   0.48388
C          C       0.88644   0.13806   0.48388
C          C       0.86194   0.74838   0.48388
C          C       0.32704   0.24578   0.29792
C          C       0.75422   0.08126   0.29792
C          C       0.91874   0.67296   0.29792
C          C       0.40932   0.17531   0.39101
C          C       0.82469   0.23401   0.39101
C          C       0.76599   0.59068   0.39101
C          C       0.32552   0.27212   0.23265
C          C       0.72788   0.05340   0.23265
C          C       0.94660   0.67448   0.23265
C          C       0.43992   0.18698   0.37486
C          C       0.81302   0.25294   0.37486
C          C       0.74706   0.56008   0.37486
N          N       0.35153   0.30058   0.26994
N          N       0.69942   0.05095   0.26994
N          N       0.94905   0.64847   0.26994
C          C       0.45850   0.21712   0.34238
C          C       0.78288   0.24138   0.34238
C          C       0.75862   0.54150   0.34238
C          C       0.34355   0.31847   0.35701
C          C       0.68153   0.02508   0.35701
C          C       0.97492   0.65645   0.35701
C          C       0.44597   0.23548   0.32662
C          C       0.76452   0.21049   0.32662
C          C       0.78951   0.55403   0.32662
C          C       0.31050   0.30585   0.33352
C          C       0.69415   0.00465   0.33352
C          C       0.99535   0.68950   0.33352
C          C       0.41543   0.22386   0.34434
C          C       0.77614   0.19157   0.34434
C          C       0.80843   0.58457   0.34434
C          C       0.29863   0.27366   0.28913
C          C       0.72634   0.02497   0.28913
C          C       0.97503   0.70137   0.28913
C          C       0.17547   0.10662   0.00443
C          C       0.89338   0.06885   0.00443
C          C       0.93115   0.82453   0.00443
C          C       0.37882   0.31213   0.20622
C          C       0.68787   0.06669   0.20622
C          C       0.93331   0.62118   0.20622
C          C       0.49079   0.22902   0.32817
C          C       0.77098   0.26177   0.32817
C          C       0.73823   0.50921   0.32817
O          O       0.38175   0.29940   0.10549
O          O       0.70060   0.08235   0.10549
O          O       0.91765   0.61825   0.10549
N          N       0.15855   0.07956   0.04832
N          N       0.92044   0.07899   0.04832
N          N       0.92101   0.84145   0.04832
O          O       0.40331   0.33826   0.25969
O          O       0.66174   0.06505   0.25969
O          O       0.93495   0.59669   0.25969
N          N       0.50813   0.25586   0.28259
N          N       0.74414   0.25227   0.28259
N          N       0.74773   0.49187   0.28259
C          C       0.42561   0.35904   0.16473
C          C       0.64096   0.06657   0.16473
C          C       0.93343   0.57439   0.16473
C          C       0.12676   0.06492   0.06102
C          C       0.93508   0.06184   0.06102
C          C       0.93816   0.87324   0.06102
C          C       0.44125   0.34470   0.08521
C          C       0.65530   0.09655   0.08521
C          C       0.90345   0.55875   0.08521
C          C       0.53988   0.26999   0.27001
C          C       0.73001   0.26989   0.27001
C          C       0.73011   0.46012   0.27001
C          C       0.41123   0.37167   0.06649
C          C       0.62833   0.03956   0.06649
C          C       0.96044   0.58877   0.06649
C          C       0.44936   0.38524   0.25019
C          C       0.61476   0.06412   0.25019
C          C       0.93588   0.55064   0.25019
H          H       0.02644   0.05516   0.08990
H          H       0.94484   0.97128   0.08990
H          H       0.02872   0.97356   0.08990
H          H       0.29795   0.12310   0.28354
H          H       0.87690   0.17485   0.28354
H          H       0.82515   0.70205   0.28354
H          H       0.63955   0.27816   0.24194
H          H       0.72184   0.36139   0.24194
H          H       0.63861   0.36045   0.24194
H          H       0.35187   0.14429   0.25195
H          H       0.85571   0.20758   0.25195
H          H       0.79242   0.64813   0.25195
H          H       0.37249   0.25613   0.26821
H          H       0.74387   0.11636   0.26821
H          H       0.88364   0.62751   0.26821
H          H       0.38993   0.23151   0.08146
H          H       0.76849   0.15842   0.08146
H          H       0.84158   0.61007   0.08146
H          H       0.30526   0.22524   0.28324
H          H       0.77476   0.08002   0.28324
H          H       0.91998   0.69474   0.28324
H          H       0.26982   0.18506   0.41467
H          H       0.81494   0.08476   0.41467
H          H       0.91524   0.73018   0.41467
H          H       0.33112   0.24927   0.41207
H          H       0.75073   0.08185   0.41207
H          H       0.91815   0.66888   0.41207
H          H       0.21617   0.16357   0.44541
H          H       0.83643   0.05260   0.44541
H          H       0.94740   0.78383   0.44541
H          H       0.32353   0.26968   0.11704
H          H       0.73032   0.05385   0.11704
H          H       0.94615   0.67647   0.11704
H          H       0.20768   0.07790   0.02785
H          H       0.92210   0.12978   0.02785
H          H       0.87022   0.79232   0.02785
H          H       0.34759   0.31573   0.46840
H          H       0.68427   0.03186   0.46840
H          H       0.96814   0.65241   0.46840
H          H       0.26134   0.09945   0.49517
H          H       0.90055   0.16189   0.49517
H          H       0.83811   0.73866   0.49517
H          H       0.35610   0.34236   0.32712
H          H       0.65764   0.01374   0.32712
H          H       0.98626   0.64390   0.32712
H          H       0.39542   0.15199   0.41648
H          H       0.84801   0.24343   0.41648
H          H       0.75657   0.60458   0.41648
H          H       0.30708   0.31822   0.24726
H          H       0.68178   0.98886   0.24726
H          H       0.01114   0.69292   0.24726
H          H       0.44908   0.17242   0.38763
H          H       0.82758   0.27666   0.38763
H          H       0.72334   0.55092   0.38763
H          H       0.29931   0.30738   0.42984
H          H       0.69262   0.99193   0.42984
H          H       0.00807   0.70069   0.42984
H          H       0.45975   0.25884   0.30178
H          H       0.74116   0.20091   0.30178
H          H       0.79909   0.54025   0.30178
H          H       0.28118   0.26702   0.20751
H          H       0.73298   0.01416   0.20751
H          H       0.98584   0.71882   0.20751
H          H       0.40630   0.23842   0.33190
H          H       0.76158   0.16788   0.33190
H          H       0.83212   0.59370   0.33190
H          H       0.28864   0.25905   0.38201
H          H       0.74095   0.02959   0.38201
H          H       0.97041   0.71136   0.38201
H          H       0.16614   0.12067   0.48055
H          H       0.87933   0.04547   0.48055
H          H       0.95453   0.83386   0.48055
H          H       0.44419   0.32937   0.15592
H          H       0.67063   0.11482   0.15592
H          H       0.88518   0.55581   0.15592
H          H       0.49967   0.21468   0.35390
H          H       0.78532   0.28499   0.35390
H          H       0.71501   0.50033   0.35390
H          H       0.46366   0.36163   0.04795
H          H       0.63837   0.10203   0.04795
H          H       0.89797   0.53634   0.04795
H          H       0.11960   0.09070   0.40242
H          H       0.90930   0.02890   0.40242
H          H       0.97110   0.88040   0.40242
H          H       0.42847   0.33207   0.49198
H          H       0.66793   0.09640   0.49198
H          H       0.90360   0.57153   0.49198
H          H       0.06568   0.06368   0.42339
H          H       0.93632   0.00200   0.42339
H          H       0.99800   0.93432   0.42339
H          H       0.39762   0.35526   0.48646
H          H       0.64474   0.04236   0.48646
H          H       0.95764   0.60238   0.48646
H          H       0.07113   0.00696   0.23811
H          H       0.99304   0.06417   0.23811
H          H       0.93583   0.92887   0.23811
H          H       0.42831   0.39238   0.01612
H          H       0.60762   0.03593   0.01612
H          H       0.96407   0.57169   0.01612
H          H       0.12553   0.03421   0.21625
H          H       0.96579   0.09132   0.21625
H          H       0.90868   0.87447   0.21625
H          H       0.39640   0.37725   0.12709
H          H       0.62275   0.01915   0.12709
H          H       0.98085   0.60360   0.12709
H          H       0.54649   0.24389   0.42898
H          H       0.75611   0.30260   0.42898
H          H       0.69740   0.45351   0.42898
H          H       0.43993   0.39825   0.29675
H          H       0.60175   0.04168   0.29675
H          H       0.95832   0.56007   0.29675
H          H       0.60041   0.27021   0.40840
H          H       0.72979   0.33020   0.40840
H          H       0.66980   0.39959   0.40840
H          H       0.45845   0.37723   0.33313
H          H       0.62277   0.08122   0.33313
H          H       0.91878   0.54155   0.33313
H          H       0.59609   0.32743   0.09288
H          H       0.67257   0.26866   0.09288
H          H       0.73134   0.40391   0.09288
H          H       0.46815   0.40082   0.18251
H          H       0.59918   0.06733   0.18251
H          H       0.93267   0.53185   0.18251
H          H       0.54169   0.30090   0.11433
H          H       0.69910   0.24079   0.11433
H          H       0.75921   0.45831   0.11433
C          C       0.31309   0.14301   0.84070
C          C       0.85699   0.17008   0.84070
C          C       0.82992   0.68691   0.84070
C          C       0.10946   0.07303   0.97878
C          C       0.92697   0.03643   0.97878
C          C       0.96357   0.89054   0.97878
C          C       0.34399   0.15515   0.82268
C          C       0.84485   0.18884   0.82268
C          C       0.81116   0.65601   0.82268
C          C       0.07851   0.05745   0.99030
C          C       0.94255   0.02106   0.99030
C          C       0.97894   0.92149   0.99030
C          C       0.36447   0.18123   0.89440
C          C       0.81877   0.18324   0.89440
C          C       0.81676   0.63553   0.89440
C          C       0.06423   0.03341   0.58335
C          C       0.96659   0.03082   0.58335
C          C       0.96918   0.93577   0.58335
C          C       0.35265   0.19421   0.98312
C          C       0.80579   0.15844   0.98312
C          C       0.84156   0.64735   0.98312
C          C       0.08155   0.02527   0.66482
C          C       0.97473   0.05628   0.66482
C          C       0.94372   0.91845   0.66482
C          C       0.32271   0.18252   0.50010
C          C       0.81748   0.14019   0.50010
C          C       0.85981   0.67729   0.50010
C          C       0.11253   0.04083   0.65300
C          C       0.95917   0.07170   0.65300
C          C       0.92830   0.88747   0.65300
C          C       0.30192   0.15671   0.93063
C          C       0.84329   0.14521   0.93063
C          C       0.85479   0.69808   0.93063
C          C       0.55686   0.26152   0.85254
C          C       0.73848   0.29534   0.85254
C          C       0.70466   0.44314   0.85254
N          N       0.36707   0.21787   0.56739
N          N       0.78213   0.14920   0.56739
N          N       0.85080   0.63293   0.56739
C          C       0.58782   0.27669   0.84124
C          C       0.72331   0.31113   0.84124
C          C       0.68887   0.41218   0.84124
C          C       0.34503   0.21980   0.63304
C          C       0.78020   0.12523   0.63304
C          C       0.87477   0.65497   0.63304
C          C       0.60242   0.30069   0.74818
C          C       0.69931   0.30173   0.74818
C          C       0.69827   0.39758   0.74818
N          N       0.31728   0.19839   0.59494
N          N       0.80161   0.11889   0.59494
N          N       0.88111   0.68272   0.59494
C          C       0.58542   0.30916   0.66626
C          C       0.69084   0.27626   0.66626
C          C       0.72374   0.41458   0.66626
C          C       0.26959   0.14385   0.95185
C          C       0.85615   0.12574   0.95185
C          C       0.87426   0.73041   0.95185
C          C       0.55444   0.29399   0.67780
C          C       0.70601   0.26045   0.67780
C          C       0.73955   0.44556   0.67780
C          C       0.39685   0.19370   0.87685
C          C       0.80630   0.20315   0.87685
C          C       0.79685   0.60315   0.87685
C          C       0.03132   0.01631   0.59141
C          C       0.98369   0.01501   0.59141
C          C       0.98499   0.96868   0.59141
C          C       0.25646   0.16170   0.93958
C          C       0.83830   0.09476   0.93958
C          C       0.90524   0.74354   0.93958
C          C       0.63534   0.31740   0.74045
C          C       0.68260   0.31794   0.74045
C          C       0.68206   0.36466   0.74045
C          C       0.22583   0.14941   0.95711
C          C       0.85059   0.07642   0.95711
C          C       0.92358   0.77417   0.95711
C          C       0.01489   0.03108   0.59194
C          C       0.96892   0.98381   0.59194
C          C       0.01619   0.98511   0.59194
C          C       0.20784   0.11916   0.98918
C          C       0.88084   0.08868   0.98918
C          C       0.91132   0.79216   0.98918
C          C       0.65139   0.30224   0.73995
C          C       0.69776   0.34915   0.73995
C          C       0.65085   0.34861   0.73995
C          C       0.22102   0.10133   0.50328
C          C       0.89867   0.11969   0.50328
C          C       0.88031   0.77898   0.50328
N          N       0.35066   0.24223   0.73482
N          N       0.75777   0.10843   0.73482
N          N       0.89157   0.64934   0.73482
C          C       0.25162   0.11356   0.98388
C          C       0.88644   0.13806   0.98388
C          C       0.86194   0.74838   0.98388
C          C       0.32704   0.24578   0.79793
C          C       0.75422   0.08126   0.79793
C          C       0.91874   0.67296   0.79793
C          C       0.40932   0.17531   0.89101
C          C       0.82469   0.23401   0.89101
C          C       0.76599   0.59068   0.89101
C          C       0.32552   0.27212   0.73265
C          C       0.72788   0.05340   0.73265
C          C       0.94660   0.67448   0.73265
C          C       0.43992   0.18698   0.87486
C          C       0.81302   0.25294   0.87486
C          C       0.74706   0.56008   0.87486
N          N       0.35153   0.30058   0.76994
N          N       0.69942   0.05095   0.76994
N          N       0.94905   0.64847   0.76994
C          C       0.45850   0.21712   0.84238
C          C       0.78288   0.24138   0.84238
C          C       0.75862   0.54150   0.84238
C          C       0.34355   0.31847   0.85701
C          C       0.68153   0.02508   0.85701
C          C       0.97492   0.65645   0.85701
C          C       0.44597   0.23548   0.82663
C          C       0.76452   0.21049   0.82663
C          C       0.78951   0.55403   0.82663
C          C       0.31050   0.30585   0.83352
C          C       0.69415   0.00465   0.83352
C          C       0.99535   0.68950   0.83352
C          C       0.41543   0.22386   0.84434
C          C       0.77614   0.19157   0.84434
C          C       0.80843   0.58457   0.84434
C          C       0.29863   0.27366   0.78913
C          C       0.72634   0.02497   0.78913
C          C       0.97503   0.70137   0.78913
C          C       0.17547   0.10662   0.50443
C          C       0.89338   0.06885   0.50443
C          C       0.93115   0.82453   0.50443
C          C       0.37882   0.31213   0.70622
C          C       0.68787   0.06669   0.70622
C          C       0.93331   0.62118   0.70622
C          C       0.49079   0.22902   0.82817
C          C       0.77098   0.26177   0.82817
C          C       0.73823   0.50921   0.82817
O          O       0.38175   0.29940   0.60549
O          O       0.70060   0.08235   0.60549
O          O       0.91765   0.61825   0.60549
N          N       0.15855   0.07956   0.54832
N          N       0.92044   0.07899   0.54832
N          N       0.92101   0.84145   0.54832
O          O       0.40331   0.33826   0.75969
O          O       0.66174   0.06505   0.75969
O          O       0.93495   0.59669   0.75969
N          N       0.50813   0.25586   0.78259
N          N       0.74414   0.25227   0.78259
N          N       0.74773   0.49187   0.78259
C          C       0.42561   0.35904   0.66473
C          C       0.64096   0.06657   0.66473
C          C       0.93343   0.57439   0.66473
C          C       0.12676   0.06492   0.56102
C          C       0.93508   0.06184   0.56102
C          C       0.93816   0.87324   0.56102
C          C       0.44125   0.34470   0.58521
C          C       0.65530   0.09655   0.58521
C          C       0.90345   0.55875   0.58521
C          C       0.53988   0.26999   0.77001
C          C       0.73001   0.26989   0.77001
C          C       0.73011   0.46012   0.77001
C          C       0.41123   0.37167   0.56649
C          C       0.62833   0.03956   0.56649
C          C       0.96044   0.58877   0.56649
C          C       0.44936   0.38524   0.75018
C          C       0.61476   0.06412   0.75018
C          C       0.93588   0.55064   0.75018
H          H       0.02644   0.05516   0.58990
H          H       0.94484   0.97128   0.58990
H          H       0.02872   0.97356   0.58990
H          H       0.29795   0.12310   0.78354
H          H       0.87690   0.17485   0.78354
H          H       0.82515   0.70205   0.78354
H          H       0.63955   0.27816   0.74194
H          H       0.72184   0.36139   0.74194
H          H       0.63861   0.36045   0.74194
H          H       0.35187   0.14429   0.75195
H          H       0.85571   0.20758   0.75195
H          H       0.79242   0.64813   0.75195
H          H       0.37249   0.25613   0.76821
H          H       0.74387   0.11636   0.76821
H          H       0.88364   0.62751   0.76821
H          H       0.38993   0.23151   0.58146
H          H       0.76849   0.15842   0.58146
H          H       0.84158   0.61007   0.58146
H          H       0.30526   0.22524   0.78324
H          H       0.77476   0.08002   0.78324
H          H       0.91998   0.69474   0.78324
H          H       0.26982   0.18506   0.91467
H          H       0.81494   0.08476   0.91467
H          H       0.91524   0.73018   0.91467
H          H       0.33112   0.24927   0.91207
H          H       0.75073   0.08185   0.91207
H          H       0.91815   0.66888   0.91207
H          H       0.21617   0.16357   0.94541
H          H       0.83643   0.05260   0.94541
H          H       0.94740   0.78383   0.94541
H          H       0.32353   0.26968   0.61704
H          H       0.73032   0.05385   0.61704
H          H       0.94615   0.67647   0.61704
H          H       0.20768   0.07790   0.52786
H          H       0.92210   0.12978   0.52786
H          H       0.87022   0.79232   0.52786
H          H       0.34759   0.31573   0.96840
H          H       0.68427   0.03186   0.96840
H          H       0.96814   0.65241   0.96840
H          H       0.26134   0.09945   0.99517
H          H       0.90055   0.16189   0.99517
H          H       0.83811   0.73866   0.99517
H          H       0.35610   0.34236   0.82712
H          H       0.65764   0.01374   0.82712
H          H       0.98626   0.64390   0.82712
H          H       0.39542   0.15199   0.91648
H          H       0.84801   0.24343   0.91648
H          H       0.75657   0.60458   0.91648
H          H       0.30708   0.31822   0.74726
H          H       0.68178   0.98886   0.74726
H          H       0.01114   0.69292   0.74726
H          H       0.44908   0.17242   0.88763
H          H       0.82758   0.27666   0.88763
H          H       0.72334   0.55092   0.88763
H          H       0.29931   0.30738   0.92984
H          H       0.69262   0.99193   0.92984
H          H       0.00807   0.70069   0.92984
H          H       0.45975   0.25884   0.80178
H          H       0.74116   0.20091   0.80178
H          H       0.79909   0.54025   0.80178
H          H       0.28118   0.26702   0.70751
H          H       0.73298   0.01416   0.70751
H          H       0.98584   0.71882   0.70751
H          H       0.40630   0.23842   0.83190
H          H       0.76158   0.16788   0.83190
H          H       0.83212   0.59370   0.83190
H          H       0.28864   0.25905   0.88201
H          H       0.74095   0.02959   0.88201
H          H       0.97041   0.71136   0.88201
H          H       0.16614   0.12067   0.98055
H          H       0.87933   0.04547   0.98055
H          H       0.95453   0.83386   0.98055
H          H       0.44419   0.32937   0.65592
H          H       0.67063   0.11482   0.65592
H          H       0.88518   0.55581   0.65592
H          H       0.49967   0.21468   0.85390
H          H       0.78532   0.28499   0.85390
H          H       0.71501   0.50033   0.85390
H          H       0.46366   0.36163   0.54795
H          H       0.63837   0.10203   0.54795
H          H       0.89797   0.53634   0.54795
H          H       0.11960   0.09070   0.90242
H          H       0.90930   0.02890   0.90242
H          H       0.97110   0.88040   0.90242
H          H       0.42847   0.33207   0.99199
H          H       0.66793   0.09640   0.99199
H          H       0.90360   0.57153   0.99199
H          H       0.06568   0.06368   0.92339
H          H       0.93632   0.00200   0.92339
H          H       0.99800   0.93432   0.92339
H          H       0.39762   0.35526   0.98646
H          H       0.64474   0.04236   0.98646
H          H       0.95764   0.60238   0.98646
H          H       0.07113   0.00696   0.73811
H          H       0.99304   0.06417   0.73811
H          H       0.93583   0.92887   0.73811
H          H       0.42831   0.39238   0.51612
H          H       0.60762   0.03593   0.51612
H          H       0.96407   0.57169   0.51612
H          H       0.12553   0.03421   0.71625
H          H       0.96579   0.09132   0.71625
H          H       0.90868   0.87447   0.71625
H          H       0.39640   0.37725   0.62709
H          H       0.62275   0.01915   0.62709
H          H       0.98085   0.60360   0.62709
H          H       0.54649   0.24389   0.92898
H          H       0.75611   0.30260   0.92898
H          H       0.69740   0.45351   0.92898
H          H       0.43993   0.39825   0.79675
H          H       0.60175   0.04168   0.79675
H          H       0.95832   0.56007   0.79675
H          H       0.60041   0.27021   0.90840
H          H       0.72979   0.33020   0.90840
H          H       0.66980   0.39959   0.90840
H          H       0.45845   0.37723   0.83314
H          H       0.62277   0.08122   0.83314
H          H       0.91878   0.54155   0.83314
H          H       0.59609   0.32743   0.59288
H          H       0.67257   0.26866   0.59288
H          H       0.73134   0.40391   0.59288
H          H       0.46815   0.40082   0.68252
H          H       0.59918   0.06733   0.68252
H          H       0.93267   0.53185   0.68252
H          H       0.54169   0.30090   0.61433
H          H       0.69910   0.24079   0.61433
H          H       0.75921   0.45831   0.61433
