data_crystal

_cell_length_a    22.71220
_cell_length_b    22.71220
_cell_length_c    7.06040
_cell_angle_alpha 90.00000
_cell_angle_beta  90.00000
_cell_angle_gamma 120.00000

_space_group_name_Hall 'P 1'
_space_group_name_H-M_alt  'P 1'

loop_
_symmetry_equiv_pos_as_xyz
'x,y,z' 

loop_
_atom_site_label
_atom_site_type_symbol
_atom_site_fract_x
_atom_site_fract_y
_atom_site_fract_z
C          C       0.36558   0.62674   0.25000 
C          C       0.37326   0.73884   0.25000 
C          C       0.26116   0.63442   0.25000 
C          C       0.29379   0.59517   0.25000 
C          C       0.40483   0.69862   0.25000 
C          C       0.30138   0.70621   0.25000 
C          C       0.51116   0.58587   0.25000 
C          C       0.41413   0.92529   0.25000 
C          C       0.07471   0.48884   0.25000 
C          C       0.47487   0.61807   0.25000 
C          C       0.38193   0.85680   0.25000 
C          C       0.14320   0.52513   0.25000 
O          O       0.36378   0.52206   0.25000 
O          O       0.47794   0.84172   0.25000 
O          O       0.15828   0.63622   0.25000 
C          C       0.62995   0.36905   0.25000 
C          C       0.63095   0.26090   0.25000 
C          C       0.73910   0.37005   0.25000 
N          N       0.70197   0.40492   0.25000 
N          N       0.59508   0.29705   0.25000 
N          N       0.70295   0.29803   0.25000 
C          C       0.39907   0.58456   0.25000 
C          C       0.41544   0.81451   0.25000 
C          C       0.18549   0.60093   0.25000 
C          C       0.59140   0.40658   0.25000 
C          C       0.59342   0.18482   0.25000 
C          C       0.81518   0.40860   0.25000 
C          C       0.62632   0.47869   0.25000 
C          C       0.52131   0.14763   0.25000 
C          C       0.85237   0.37368   0.25000 
C          C       0.58994   0.51405   0.25000 
C          C       0.48595   0.07589   0.25000 
C          C       0.92411   0.41006   0.25000 
C          C       0.51794   0.47775   0.25000 
C          C       0.52225   0.04019   0.25000 
C          C       0.95981   0.48206   0.25000 
C          C       0.48288   0.40601   0.25000 
C          C       0.59399   0.07687   0.25000 
C          C       0.92313   0.51712   0.25000 
C          C       0.51928   0.37066   0.25000 
C          C       0.62934   0.14862   0.25000 
C          C       0.85138   0.48072   0.25000 
N          N       0.47953   0.51270   0.25000 
N          N       0.48730   0.96683   0.25000 
N          N       0.03317   0.52047   0.25000 
H          H       0.26106   0.53675   0.25000 
H          H       0.46325   0.72431   0.25000 
H          H       0.27569   0.73894   0.25000 
H          H       0.56968   0.61688   0.25000 
H          H       0.38312   0.95280   0.25000 
H          H       0.04720   0.43032   0.25000 
H          H       0.50239   0.67659   0.25000 
H          H       0.32341   0.82580   0.25000 
H          H       0.17420   0.49761   0.25000 
H          H       0.68487   0.50889   0.25000 
H          H       0.49111   0.17598   0.25000 
H          H       0.82402   0.31513   0.25000 
H          H       0.61880   0.57261   0.25000 
H          H       0.42739   0.04619   0.25000 
H          H       0.95381   0.38120   0.25000 
H          H       0.42433   0.37607   0.25000 
H          H       0.62393   0.04826   0.25000 
H          H       0.95174   0.57567   0.25000 
H          H       0.48988   0.31210   0.25000 
H          H       0.68790   0.17778   0.25000 
H          H       0.82222   0.51012   0.25000 
H          H       0.42269   0.48042   0.25000 
H          H       0.51958   0.94227   0.25000 
H          H       0.05773   0.57731   0.25000 
C          C       0.36558   0.62674   0.75000 
C          C       0.37326   0.73884   0.75000 
C          C       0.26116   0.63442   0.75000 
C          C       0.29379   0.59517   0.75000 
C          C       0.40483   0.69862   0.75000 
C          C       0.30138   0.70621   0.75000 
C          C       0.51116   0.58587   0.75000 
C          C       0.41413   0.92529   0.75000 
C          C       0.07471   0.48884   0.75000 
C          C       0.47487   0.61807   0.75000 
C          C       0.38193   0.85680   0.75000 
C          C       0.14320   0.52513   0.75000 
O          O       0.36378   0.52206   0.75000 
O          O       0.47794   0.84172   0.75000 
O          O       0.15828   0.63622   0.75000 
C          C       0.62995   0.36905   0.75000 
C          C       0.63095   0.26090   0.75000 
C          C       0.73910   0.37005   0.75000 
N          N       0.70197   0.40492   0.75000 
N          N       0.59508   0.29705   0.75000 
N          N       0.70295   0.29803   0.75000 
C          C       0.39907   0.58456   0.75000 
C          C       0.41544   0.81451   0.75000 
C          C       0.18549   0.60093   0.75000 
C          C       0.59140   0.40658   0.75000 
C          C       0.59342   0.18482   0.75000 
C          C       0.81518   0.40860   0.75000 
C          C       0.62632   0.47869   0.75000 
C          C       0.52131   0.14763   0.75000 
C          C       0.85237   0.37368   0.75000 
C          C       0.58994   0.51405   0.75000 
C          C       0.48595   0.07589   0.75000 
C          C       0.92411   0.41006   0.75000 
C          C       0.51794   0.47775   0.75000 
C          C       0.52225   0.04019   0.75000 
C          C       0.95981   0.48206   0.75000 
C          C       0.48288   0.40601   0.75000 
C          C       0.59399   0.07687   0.75000 
C          C       0.92313   0.51712   0.75000 
C          C       0.51928   0.37066   0.75000 
C          C       0.62934   0.14862   0.75000 
C          C       0.85138   0.48072   0.75000 
N          N       0.47953   0.51270   0.75000 
N          N       0.48730   0.96683   0.75000 
N          N       0.03317   0.52047   0.75000 
H          H       0.26106   0.53675   0.75000 
H          H       0.46325   0.72431   0.75000 
H          H       0.27569   0.73894   0.75000 
H          H       0.56968   0.61688   0.75000 
H          H       0.38312   0.95280   0.75000 
H          H       0.04720   0.43032   0.75000 
H          H       0.50239   0.67659   0.75000 
H          H       0.32341   0.82580   0.75000 
H          H       0.17420   0.49761   0.75000 
H          H       0.68487   0.50889   0.75000 
H          H       0.49111   0.17598   0.75000 
H          H       0.82402   0.31513   0.75000 
H          H       0.61880   0.57261   0.75000 
H          H       0.42739   0.04619   0.75000 
H          H       0.95381   0.38120   0.75000 
H          H       0.42433   0.37607   0.75000 
H          H       0.62393   0.04826   0.75000 
H          H       0.95174   0.57567   0.75000 
H          H       0.48988   0.31210   0.75000 
H          H       0.68790   0.17778   0.75000 
H          H       0.82222   0.51012   0.75000 
H          H       0.42269   0.48042   0.75000 
H          H       0.51958   0.94227   0.75000 
H          H       0.05773   0.57731   0.75000 
