data_crystal

_cell_length_a    30.09880
_cell_length_b    30.09880
_cell_length_c    6.53240
_cell_angle_alpha 90.00000
_cell_angle_beta  90.00000
_cell_angle_gamma 120.00000

_space_group_name_Hall 'P 1'
_space_group_name_H-M_alt  'P 1'

loop_
_symmetry_equiv_pos_as_xyz
'x,y,z' 

loop_
_atom_site_label
_atom_site_type_symbol
_atom_site_fract_x
_atom_site_fract_y
_atom_site_fract_z
C          C       0.69221   0.30487   0.25000 
C          C       0.69513   0.38734   0.25000 
C          C       0.61266   0.30779   0.25000 
C          C       0.30779   0.69513   0.75000 
C          C       0.30487   0.61266   0.75000 
C          C       0.38734   0.69221   0.75000 
C          C       0.63848   0.27984   0.25000 
C          C       0.72016   0.35864   0.25000 
C          C       0.64136   0.36152   0.25000 
C          C       0.36152   0.72016   0.75000 
C          C       0.27984   0.64136   0.75000 
C          C       0.35864   0.63848   0.75000 
C          C       0.80390   0.27863   0.25000 
C          C       0.72137   0.52527   0.25000 
C          C       0.47473   0.19610   0.25000 
C          C       0.19610   0.72137   0.75000 
C          C       0.27863   0.47473   0.75000 
C          C       0.52527   0.80390   0.75000 
C          C       0.77549   0.30132   0.25000 
C          C       0.69868   0.47417   0.25000 
C          C       0.52583   0.22451   0.25000 
C          C       0.22451   0.69868   0.75000 
C          C       0.30132   0.52583   0.75000 
C          C       0.47417   0.77549   0.75000 
O          O       0.69360   0.22802   0.25000 
O          O       0.77198   0.46558   0.25000 
O          O       0.53442   0.30640   0.25000 
O          O       0.30640   0.77198   0.75000 
O          O       0.22802   0.53442   0.75000 
O          O       0.46558   0.69360   0.75000 
C          C       0.71878   0.27479   0.25000 
C          C       0.72521   0.44399   0.25000 
C          C       0.55601   0.28122   0.25000 
C          C       0.28122   0.72521   0.75000 
C          C       0.27479   0.55601   0.75000 
C          C       0.44399   0.71878   0.75000 
C          C       0.85699   0.13600   0.25000 
C          C       0.86400   0.72099   0.25000 
C          C       0.27901   0.14301   0.25000 
C          C       0.14301   0.86400   0.75000 
C          C       0.13600   0.27901   0.75000 
C          C       0.72099   0.85699   0.75000 
C          C       0.88627   0.18952   0.25000 
C          C       0.81048   0.69675   0.25000 
C          C       0.30325   0.11373   0.25000 
C          C       0.11373   0.81048   0.75000 
C          C       0.18952   0.30325   0.75000 
C          C       0.69675   0.88627   0.75000 
C          C       0.86339   0.22003   0.25000 
C          C       0.77997   0.64336   0.25000 
C          C       0.35664   0.13661   0.25000 
C          C       0.13661   0.77997   0.75000 
C          C       0.22003   0.35664   0.75000 
C          C       0.64336   0.86339   0.75000 
N          N       0.78182   0.22416   0.25000 
N          N       0.77584   0.55766   0.25000 
N          N       0.44234   0.21818   0.25000 
N          N       0.21818   0.77584   0.75000 
N          N       0.22416   0.44234   0.75000 
N          N       0.55766   0.78182   0.75000 
C          C       0.97432   0.02829   0.25000 
C          C       0.97171   0.94603   0.25000 
C          C       0.05397   0.02568   0.25000 
C          C       0.02568   0.97171   0.75000 
C          C       0.02829   0.05397   0.75000 
C          C       0.94603   0.97432   0.75000 
C          C       0.02802   0.05348   0.25000 
C          C       0.94652   0.97454   0.25000 
C          C       0.02546   0.97198   0.25000 
C          C       0.97198   0.94652   0.75000 
C          C       0.05348   0.02546   0.75000 
C          C       0.97454   0.02802   0.75000 
C          C       0.86238   0.05387   0.25000 
C          C       0.94613   0.80851   0.25000 
C          C       0.19149   0.13762   0.25000 
C          C       0.13762   0.94613   0.75000 
C          C       0.05387   0.19149   0.75000 
C          C       0.80851   0.86238   0.75000 
C          C       0.89092   0.03136   0.25000 
C          C       0.96864   0.85956   0.25000 
C          C       0.14044   0.10908   0.25000 
C          C       0.10908   0.96864   0.75000 
C          C       0.03136   0.14044   0.75000 
C          C       0.85956   0.89092   0.75000 
O          O       0.97266   0.10493   0.25000 
O          O       0.89507   0.86773   0.25000 
O          O       0.13227   0.02734   0.25000 
O          O       0.02734   0.89507   0.75000 
O          O       0.10493   0.13227   0.75000 
O          O       0.86773   0.97266   0.75000 
C          C       0.94762   0.05815   0.25000 
C          C       0.94185   0.88947   0.25000 
C          C       0.11053   0.05238   0.25000 
C          C       0.05238   0.94185   0.75000 
C          C       0.05815   0.11053   0.75000 
C          C       0.88947   0.94762   0.75000 
C          C       0.80922   0.19646   0.25000 
C          C       0.80354   0.61276   0.25000 
C          C       0.38724   0.19078   0.25000 
C          C       0.19078   0.80354   0.75000 
C          C       0.19646   0.38724   0.75000 
C          C       0.61276   0.80922   0.75000 
C          C       0.77995   0.14293   0.25000 
C          C       0.85707   0.63702   0.25000 
C          C       0.36298   0.22005   0.25000 
C          C       0.22005   0.85707   0.75000 
C          C       0.14293   0.36298   0.75000 
C          C       0.63702   0.77995   0.75000 
C          C       0.80283   0.11242   0.25000 
C          C       0.88758   0.69041   0.25000 
C          C       0.30959   0.19717   0.25000 
C          C       0.19717   0.88758   0.75000 
C          C       0.11242   0.30959   0.75000 
C          C       0.69041   0.80283   0.75000 
N          N       0.88440   0.10833   0.25000 
N          N       0.89167   0.77607   0.25000 
N          N       0.22393   0.11560   0.25000 
N          N       0.11560   0.89167   0.75000 
N          N       0.10833   0.22393   0.75000 
N          N       0.77607   0.88440   0.75000 
C          C       0.89833   0.27668   0.25000 
C          C       0.72332   0.62165   0.25000 
C          C       0.37835   0.10167   0.25000 
C          C       0.10167   0.72332   0.75000 
C          C       0.27668   0.37835   0.75000 
C          C       0.62165   0.89833   0.75000 
C          C       0.76793   0.05575   0.25000 
C          C       0.94425   0.71218   0.25000 
C          C       0.28782   0.23207   0.25000 
C          C       0.23207   0.94425   0.75000 
C          C       0.05575   0.28782   0.75000 
C          C       0.71218   0.76793   0.75000 
H          H       0.61514   0.23614   0.25000 
H          H       0.76386   0.37900   0.25000 
H          H       0.62100   0.38486   0.25000 
H          H       0.38486   0.76386   0.75000 
H          H       0.23614   0.62100   0.75000 
H          H       0.37900   0.61514   0.75000 
H          H       0.84755   0.30289   0.25000 
H          H       0.69711   0.54466   0.25000 
H          H       0.45534   0.15245   0.25000 
H          H       0.15245   0.69711   0.75000 
H          H       0.30289   0.45534   0.75000 
H          H       0.54466   0.84755   0.75000 
H          H       0.79487   0.34496   0.25000 
H          H       0.65504   0.44991   0.25000 
H          H       0.55009   0.20513   0.25000 
H          H       0.20513   0.65504   0.75000 
H          H       0.34496   0.55009   0.75000 
H          H       0.44991   0.79487   0.75000 
H          H       0.92994   0.20929   0.25000 
H          H       0.79071   0.72065   0.25000 
H          H       0.27935   0.07006   0.25000 
H          H       0.07006   0.79071   0.75000 
H          H       0.20929   0.27935   0.75000 
H          H       0.72065   0.92994   0.75000 
H          H       0.73949   0.19899   0.25000 
H          H       0.80101   0.54050   0.25000 
H          H       0.45950   0.26051   0.25000 
H          H       0.26051   0.80101   0.75000 
H          H       0.19899   0.45950   0.75000 
H          H       0.54050   0.73949   0.75000 
H          H       0.05064   0.09720   0.25000 
H          H       0.90280   0.95344   0.25000 
H          H       0.04656   0.94936   0.25000 
H          H       0.94936   0.90280   0.75000 
H          H       0.09720   0.04656   0.75000 
H          H       0.95344   0.05064   0.75000 
H          H       0.81875   0.02948   0.25000 
H          H       0.97052   0.78927   0.25000 
H          H       0.21073   0.18125   0.25000 
H          H       0.18125   0.97052   0.75000 
H          H       0.02948   0.21073   0.75000 
H          H       0.78927   0.81875   0.75000 
H          H       0.87168   0.98773   0.25000 
H          H       0.01227   0.88395   0.25000 
H          H       0.11605   0.12832   0.25000 
H          H       0.12832   0.01227   0.75000 
H          H       0.98773   0.11605   0.75000 
H          H       0.88395   0.87168   0.75000 
H          H       0.73627   0.12315   0.25000 
H          H       0.87685   0.61312   0.25000 
H          H       0.38688   0.26373   0.25000 
H          H       0.26373   0.87685   0.75000 
H          H       0.12315   0.38688   0.75000 
H          H       0.61312   0.73627   0.75000 
H          H       0.92699   0.12952   0.25000 
H          H       0.87048   0.79747   0.25000 
H          H       0.20253   0.07301   0.25000 
H          H       0.07301   0.87048   0.75000 
H          H       0.12952   0.20253   0.75000 
H          H       0.79747   0.92699   0.75000 
H          H       0.90642   0.29127   0.08552 
H          H       0.70873   0.61515   0.08552 
H          H       0.38485   0.09358   0.08552 
H          H       0.09358   0.70873   0.58552 
H          H       0.29127   0.38485   0.58552 
H          H       0.61515   0.90642   0.58552 
H          H       0.93590   0.28630   0.32869 
H          H       0.71370   0.64960   0.32869 
H          H       0.35040   0.06410   0.32869 
H          H       0.06410   0.71370   0.82869 
H          H       0.28630   0.35040   0.82869 
H          H       0.64960   0.93590   0.82869 
H          H       0.87939   0.29583   0.33580 
H          H       0.70417   0.58356   0.33580 
H          H       0.41644   0.12061   0.33580 
H          H       0.12061   0.70417   0.83580 
H          H       0.29583   0.41644   0.83580 
H          H       0.58356   0.87939   0.83580 
H          H       0.78770   0.03649   0.32875 
H          H       0.96351   0.75121   0.32875 
H          H       0.24879   0.21230   0.32875 
H          H       0.21230   0.96351   0.82875 
H          H       0.03649   0.24879   0.82875 
H          H       0.75121   0.78770   0.82875 
H          H       0.75822   0.04143   0.08551 
H          H       0.95857   0.71679   0.08551 
H          H       0.28321   0.24178   0.08551 
H          H       0.24178   0.95857   0.58551 
H          H       0.04143   0.28321   0.58551 
H          H       0.71679   0.75822   0.58551 
H          H       0.73115   0.04597   0.33574 
H          H       0.95403   0.68518   0.33574 
H          H       0.31482   0.26885   0.33574 
H          H       0.26885   0.95403   0.83574 
H          H       0.04597   0.31482   0.83574 
H          H       0.68518   0.73115   0.83574 
