data_crystal

_cell_length_a    22.37380
_cell_length_b    22.37380
_cell_length_c    6.49340
_cell_angle_alpha 90.00000
_cell_angle_beta  90.00000
_cell_angle_gamma 120.00000

_space_group_name_Hall 'P 1'
_space_group_name_H-M_alt  'P 1'

loop_
_symmetry_equiv_pos_as_xyz
'x,y,z' 

loop_
_atom_site_label
_atom_site_type_symbol
_atom_site_fract_x
_atom_site_fract_y
_atom_site_fract_z
C          C       0.26077   0.62671   0.00000 
C          C       0.37329   0.63406   0.00000 
C          C       0.36594   0.73923   0.00000 
C          C       0.30103   0.59480   0.00000 
C          C       0.40520   0.70623   0.00000 
C          C       0.29377   0.69897   0.00000 
C          C       0.07345   0.58604   0.00000 
C          C       0.41396   0.48741   0.00000 
C          C       0.51259   0.92655   0.00000 
C          C       0.14229   0.61830   0.00000 
C          C       0.38170   0.52399   0.00000 
C          C       0.47601   0.85771   0.00000 
O          O       0.15718   0.52167   0.00000 
O          O       0.47833   0.63551   0.00000 
O          O       0.36449   0.84282   0.00000 
C          C       0.73694   0.36813   0.00000 
C          C       0.63187   0.36881   0.00000 
C          C       0.63119   0.26306   0.00000 
N          N       0.70196   0.40324   0.00000 
N          N       0.59676   0.29872   0.00000 
N          N       0.70128   0.29804   0.00000 
C          C       0.18467   0.58449   0.00000 
C          C       0.41551   0.60018   0.00000 
C          C       0.39982   0.81533   0.00000 
C          C       0.81291   0.40574   0.00000 
C          C       0.59426   0.40717   0.00000 
C          C       0.59283   0.18709   0.00000 
C          C       0.84984   0.47808   0.00000 
C          C       0.52192   0.37176   0.00000 
C          C       0.62824   0.15016   0.00000 
C          C       0.92192   0.51373   0.00000 
C          C       0.48627   0.40819   0.00000 
C          C       0.59181   0.07808   0.00000 
C          C       0.95792   0.47734   0.00000 
C          C       0.52266   0.48058   0.00000 
C          C       0.51942   0.04208   0.00000 
C          C       0.92117   0.40520   0.00000 
C          C       0.59480   0.51597   0.00000 
C          C       0.48403   0.07883   0.00000 
C          C       0.84909   0.36957   0.00000 
C          C       0.63043   0.47952   0.00000 
C          C       0.52048   0.15091   0.00000 
N          N       0.03164   0.51253   0.00000 
N          N       0.48747   0.51911   0.00000 
N          N       0.48089   0.96836   0.00000 
H          H       0.27508   0.53609   0.00000 
H          H       0.46391   0.73899   0.00000 
H          H       0.26101   0.72492   0.00000 
H          H       0.04590   0.61728   0.00000 
H          H       0.38272   0.42862   0.00000 
H          H       0.57138   0.95410   0.00000 
H          H       0.17353   0.67710   0.00000 
H          H       0.32290   0.49643   0.00000 
H          H       0.50357   0.82647   0.00000 
H          H       0.82105   0.50812   0.00000 
H          H       0.49188   0.31293   0.00000 
H          H       0.68707   0.17895   0.00000 
H          H       0.95166   0.57256   0.00000 
H          H       0.42744   0.37910   0.00000 
H          H       0.62090   0.04834   0.00000 
H          H       0.95003   0.37523   0.00000 
H          H       0.62477   0.57480   0.00000 
H          H       0.42520   0.04997   0.00000 
H          H       0.81967   0.31073   0.00000 
H          H       0.68927   0.50894   0.00000 
H          H       0.49106   0.18033   0.00000 
H          H       0.05627   0.48005   0.00000 
H          H       0.51995   0.57622   0.00000 
H          H       0.42378   0.94373   0.00000 
C          C       0.59415   0.29342   0.50000 
C          C       0.70658   0.30073   0.50000 
C          C       0.69927   0.40585   0.50000 
C          C       0.63436   0.26149   0.50000 
C          C       0.73851   0.37287   0.50000 
C          C       0.62713   0.36564   0.50000 
C          C       0.40713   0.25307   0.50000 
C          C       0.74693   0.15406   0.50000 
C          C       0.84594   0.59287   0.50000 
C          C       0.47594   0.28525   0.50000 
C          C       0.71475   0.19069   0.50000 
C          C       0.80931   0.52406   0.50000 
O          O       0.49063   0.18848   0.50000 
O          O       0.81152   0.30215   0.50000 
O          O       0.69785   0.50937   0.50000 
C          C       0.07033   0.03486   0.50000 
C          C       0.96514   0.03547   0.50000 
C          C       0.96453   0.92967   0.50000 
N          N       0.03527   0.06993   0.50000 
N          N       0.93007   0.96534   0.50000 
N          N       0.03466   0.96473   0.50000 
C          C       0.51816   0.25130   0.50000 
C          C       0.74870   0.26686   0.50000 
C          C       0.73314   0.48184   0.50000 
C          C       0.14644   0.07258   0.50000 
C          C       0.92742   0.07386   0.50000 
C          C       0.92614   0.85356   0.50000 
C          C       0.18342   0.14496   0.50000 
C          C       0.85504   0.03846   0.50000 
C          C       0.96154   0.81658   0.50000 
C          C       0.25554   0.18067   0.50000 
C          C       0.81933   0.07487   0.50000 
C          C       0.92513   0.74446   0.50000 
C          C       0.29159   0.14433   0.50000 
C          C       0.85567   0.14726   0.50000 
C          C       0.85274   0.70841   0.50000 
C          C       0.25487   0.07220   0.50000 
C          C       0.92780   0.18267   0.50000 
C          C       0.81733   0.74513   0.50000 
C          C       0.18274   0.03651   0.50000 
C          C       0.96349   0.14623   0.50000 
C          C       0.85377   0.81726   0.50000 
N          N       0.36531   0.17956   0.50000 
N          N       0.82044   0.18575   0.50000 
N          N       0.81425   0.63469   0.50000 
H          H       0.60837   0.20278   0.50000 
H          H       0.79722   0.40559   0.50000 
H          H       0.59441   0.39163   0.50000 
H          H       0.37963   0.28437   0.50000 
H          H       0.71563   0.09526   0.50000 
H          H       0.90474   0.62037   0.50000 
H          H       0.50724   0.34404   0.50000 
H          H       0.65596   0.16320   0.50000 
H          H       0.83680   0.49276   0.50000 
H          H       0.15465   0.17502   0.50000 
H          H       0.82498   0.97963   0.50000 
H          H       0.02037   0.84535   0.50000 
H          H       0.28525   0.23950   0.50000 
H          H       0.76050   0.04575   0.50000 
H          H       0.95425   0.71475   0.50000 
H          H       0.28374   0.04225   0.50000 
H          H       0.95775   0.24149   0.50000 
H          H       0.75851   0.71626   0.50000 
H          H       0.15342   0.97767   0.50000 
H          H       0.02233   0.17575   0.50000 
H          H       0.82425   0.84658   0.50000 
H          H       0.38994   0.14708   0.50000 
H          H       0.85292   0.24286   0.50000 
H          H       0.75714   0.61006   0.50000 
