data_crystal

_cell_length_a    36.90350
_cell_length_b    36.90350
_cell_length_c    7.07900
_cell_angle_alpha 90.00000
_cell_angle_beta  90.00000
_cell_angle_gamma 120.00000

_space_group_name_Hall 'P 1'
_space_group_name_H-M_alt  'P 1'

loop_
_symmetry_equiv_pos_as_xyz
'x,y,z'

loop_
_atom_site_label
_atom_site_type_symbol
_atom_site_fract_x
_atom_site_fract_y
_atom_site_fract_z
C          C       0.35280   0.64219   0.25000
C          C       0.35781   0.71061   0.25000
C          C       0.28939   0.64720   0.25000
C          C       0.64720   0.35781   0.25000
C          C       0.64219   0.28939   0.25000
C          C       0.71061   0.35280   0.25000
C          C       0.30909   0.62313   0.25000
C          C       0.37687   0.68596   0.25000
C          C       0.31404   0.69091   0.25000
C          C       0.69091   0.37687   0.25000
C          C       0.62313   0.31404   0.25000
C          C       0.68596   0.30909   0.25000
C          C       0.44064   0.61707   0.25000
C          C       0.38293   0.82357   0.25000
C          C       0.17643   0.55936   0.25000
C          C       0.55936   0.38293   0.25000
C          C       0.61707   0.17643   0.25000
C          C       0.82357   0.44064   0.25000
C          C       0.41911   0.63655   0.25000
C          C       0.36345   0.78256   0.25000
C          C       0.21744   0.58089   0.25000
C          C       0.58089   0.36345   0.25000
C          C       0.63655   0.21744   0.25000
C          C       0.78256   0.41911   0.25000
O          O       0.35140   0.57828   0.25000
O          O       0.42172   0.77312   0.25000
O          O       0.22688   0.64860   0.25000
O          O       0.64860   0.42172   0.25000
O          O       0.57828   0.22688   0.25000
O          O       0.77312   0.35140   0.25000
C          C       0.37300   0.61633   0.25000
C          C       0.38367   0.75667   0.25000
C          C       0.24333   0.62700   0.25000
C          C       0.62700   0.38367   0.25000
C          C       0.61633   0.24333   0.25000
C          C       0.75667   0.37300   0.25000
N          N       0.42065   0.57311   0.25000
N          N       0.42689   0.84754   0.25000
N          N       0.15246   0.57935   0.25000
N          N       0.57935   0.42689   0.25000
N          N       0.57311   0.15246   0.25000
N          N       0.84754   0.42065   0.25000
O          O       0.37779   0.48284   0.25000
O          O       0.51716   0.89495   0.25000
O          O       0.10505   0.62221   0.25000
O          O       0.62221   0.51716   0.25000
O          O       0.48284   0.10505   0.25000
O          O       0.89495   0.37779   0.25000
C          C       0.35427   0.49947   0.25000
C          C       0.50053   0.85480   0.25000
C          C       0.14520   0.64573   0.25000
C          C       0.64573   0.50053   0.25000
C          C       0.49947   0.14520   0.25000
C          C       0.85480   0.35427   0.25000
C          C       0.44295   0.55203   0.25000
C          C       0.44797   0.89092   0.25000
C          C       0.10908   0.55705   0.25000
C          C       0.55705   0.44797   0.25000
C          C       0.55203   0.10908   0.25000
C          C       0.89092   0.44295   0.25000
C          C       0.42138   0.50822   0.25000
C          C       0.49178   0.91316   0.25000
C          C       0.08684   0.57862   0.25000
C          C       0.57862   0.49178   0.25000
C          C       0.50822   0.08684   0.25000
C          C       0.91316   0.42138   0.25000
C          C       0.44439   0.48827   0.25000
C          C       0.51173   0.95612   0.25000
C          C       0.04388   0.55561   0.25000
C          C       0.55561   0.51173   0.25000
C          C       0.48827   0.04388   0.25000
C          C       0.95612   0.44439   0.25000
C          C       0.48814   0.51085   0.25000
C          C       0.48915   0.97729   0.25000
C          C       0.02271   0.51186   0.25000
C          C       0.51186   0.48915   0.25000
C          C       0.51085   0.02271   0.25000
C          C       0.97729   0.48814   0.25000
C          C       0.50904   0.55427   0.25000
C          C       0.44573   0.95477   0.25000
C          C       0.04523   0.49096   0.25000
C          C       0.49096   0.44573   0.25000
C          C       0.55427   0.04523   0.25000
C          C       0.95477   0.50904   0.25000
C          C       0.48670   0.57459   0.25000
C          C       0.42541   0.91211   0.25000
C          C       0.08789   0.51330   0.25000
C          C       0.51330   0.42541   0.25000
C          C       0.57459   0.08789   0.25000
C          C       0.91211   0.48670   0.25000
H          H       0.28902   0.58756   0.25000
H          H       0.41244   0.70146   0.25000
H          H       0.29854   0.71098   0.25000
H          H       0.71098   0.41244   0.25000
H          H       0.58756   0.29854   0.25000
H          H       0.70146   0.28902   0.25000
H          H       0.47630   0.63579   0.25000
H          H       0.36421   0.84051   0.25000
H          H       0.15949   0.52370   0.25000
H          H       0.52370   0.36421   0.25000
H          H       0.63579   0.15949   0.25000
H          H       0.84051   0.47630   0.25000
H          H       0.43604   0.67220   0.25000
H          H       0.32780   0.76384   0.25000
H          H       0.23616   0.56396   0.25000
H          H       0.56396   0.32780   0.25000
H          H       0.67220   0.23616   0.25000
H          H       0.76384   0.43604   0.25000
H          H       0.32401   0.47821   0.32441
H          H       0.52179   0.84580   0.32441
H          H       0.15420   0.67599   0.32441
H          H       0.67599   0.52179   0.32441
H          H       0.47821   0.15420   0.32441
H          H       0.84580   0.32401   0.32441
H          H       0.34734   0.50437   0.10119
H          H       0.49563   0.84297   0.10119
H          H       0.15703   0.65266   0.10119
H          H       0.65266   0.49563   0.10119
H          H       0.50437   0.15703   0.10119
H          H       0.84297   0.34734   0.10119
H          H       0.37067   0.53054   0.32439
H          H       0.46946   0.84013   0.32439
H          H       0.15987   0.62933   0.32439
H          H       0.62933   0.46946   0.32439
H          H       0.53054   0.15987   0.32439
H          H       0.84013   0.37067   0.32439
H          H       0.42749   0.45262   0.25000
H          H       0.54738   0.97487   0.25000
H          H       0.02513   0.57251   0.25000
H          H       0.57251   0.54738   0.25000
H          H       0.45262   0.02513   0.25000
H          H       0.97487   0.42749   0.25000
H          H       0.54470   0.57278   0.25000
H          H       0.42722   0.97192   0.25000
H          H       0.02808   0.45530   0.25000
H          H       0.45530   0.42722   0.25000
H          H       0.57278   0.02808   0.25000
H          H       0.97192   0.54470   0.25000
H          H       0.50383   0.61025   0.25000
H          H       0.38975   0.89358   0.25000
H          H       0.10642   0.49617   0.25000
H          H       0.49617   0.38975   0.25000
H          H       0.61025   0.10642   0.25000
H          H       0.89358   0.50383   0.25000
C          C       0.35280   0.64219   0.75000
C          C       0.35781   0.71061   0.75000
C          C       0.28939   0.64720   0.75000
C          C       0.64720   0.35781   0.75000
C          C       0.64219   0.28939   0.75000
C          C       0.71061   0.35280   0.75000
C          C       0.30909   0.62313   0.75000
C          C       0.37687   0.68596   0.75000
C          C       0.31404   0.69091   0.75000
C          C       0.69091   0.37687   0.75000
C          C       0.62313   0.31404   0.75000
C          C       0.68596   0.30909   0.75000
C          C       0.44064   0.61707   0.75000
C          C       0.38293   0.82357   0.75000
C          C       0.17643   0.55936   0.75000
C          C       0.55936   0.38293   0.75000
C          C       0.61707   0.17643   0.75000
C          C       0.82357   0.44064   0.75000
C          C       0.41911   0.63655   0.75000
C          C       0.36345   0.78256   0.75000
C          C       0.21744   0.58089   0.75000
C          C       0.58089   0.36345   0.75000
C          C       0.63655   0.21744   0.75000
C          C       0.78256   0.41911   0.75000
O          O       0.35140   0.57828   0.75000
O          O       0.42172   0.77312   0.75000
O          O       0.22688   0.64860   0.75000
O          O       0.64860   0.42172   0.75000
O          O       0.57828   0.22688   0.75000
O          O       0.77312   0.35140   0.75000
C          C       0.37300   0.61633   0.75000
C          C       0.38367   0.75667   0.75000
C          C       0.24333   0.62700   0.75000
C          C       0.62700   0.38367   0.75000
C          C       0.61633   0.24333   0.75000
C          C       0.75667   0.37300   0.75000
N          N       0.42065   0.57311   0.75000
N          N       0.42689   0.84754   0.75000
N          N       0.15246   0.57935   0.75000
N          N       0.57935   0.42689   0.75000
N          N       0.57311   0.15246   0.75000
N          N       0.84754   0.42065   0.75000
O          O       0.37779   0.48284   0.75000
O          O       0.51716   0.89495   0.75000
O          O       0.10505   0.62221   0.75000
O          O       0.62221   0.51716   0.75000
O          O       0.48284   0.10505   0.75000
O          O       0.89495   0.37779   0.75000
C          C       0.35427   0.49947   0.75000
C          C       0.50053   0.85480   0.75000
C          C       0.14520   0.64573   0.75000
C          C       0.64573   0.50053   0.75000
C          C       0.49947   0.14520   0.75000
C          C       0.85480   0.35427   0.75000
C          C       0.44295   0.55203   0.75000
C          C       0.44797   0.89092   0.75000
C          C       0.10908   0.55705   0.75000
C          C       0.55705   0.44797   0.75000
C          C       0.55203   0.10908   0.75000
C          C       0.89092   0.44295   0.75000
C          C       0.42138   0.50822   0.75000
C          C       0.49178   0.91316   0.75000
C          C       0.08684   0.57862   0.75000
C          C       0.57862   0.49178   0.75000
C          C       0.50822   0.08684   0.75000
C          C       0.91316   0.42138   0.75000
C          C       0.44439   0.48827   0.75000
C          C       0.51173   0.95612   0.75000
C          C       0.04388   0.55561   0.75000
C          C       0.55561   0.51173   0.75000
C          C       0.48827   0.04388   0.75000
C          C       0.95612   0.44439   0.75000
C          C       0.48814   0.51085   0.75000
C          C       0.48915   0.97729   0.75000
C          C       0.02271   0.51186   0.75000
C          C       0.51186   0.48915   0.75000
C          C       0.51085   0.02271   0.75000
C          C       0.97729   0.48814   0.75000
C          C       0.50904   0.55427   0.75000
C          C       0.44573   0.95477   0.75000
C          C       0.04523   0.49096   0.75000
C          C       0.49096   0.44573   0.75000
C          C       0.55427   0.04523   0.75000
C          C       0.95477   0.50904   0.75000
C          C       0.48670   0.57459   0.75000
C          C       0.42541   0.91211   0.75000
C          C       0.08789   0.51330   0.75000
C          C       0.51330   0.42541   0.75000
C          C       0.57459   0.08789   0.75000
C          C       0.91211   0.48670   0.75000
H          H       0.28902   0.58756   0.75000
H          H       0.41244   0.70146   0.75000
H          H       0.29854   0.71098   0.75000
H          H       0.71098   0.41244   0.75000
H          H       0.58756   0.29854   0.75000
H          H       0.70146   0.28902   0.75000
H          H       0.47630   0.63579   0.75000
H          H       0.36421   0.84051   0.75000
H          H       0.15949   0.52370   0.75000
H          H       0.52370   0.36421   0.75000
H          H       0.63579   0.15949   0.75000
H          H       0.84051   0.47630   0.75000
H          H       0.43604   0.67220   0.75000
H          H       0.32780   0.76384   0.75000
H          H       0.23616   0.56396   0.75000
H          H       0.56396   0.32780   0.75000
H          H       0.67220   0.23616   0.75000
H          H       0.76384   0.43604   0.75000
H          H       0.32401   0.47821   0.82442
H          H       0.52179   0.84580   0.82442
H          H       0.15420   0.67599   0.82442
H          H       0.67599   0.52179   0.82442
H          H       0.47821   0.15420   0.82442
H          H       0.84580   0.32401   0.82442
H          H       0.34734   0.50437   0.60119
H          H       0.49563   0.84297   0.60119
H          H       0.15703   0.65266   0.60119
H          H       0.65266   0.49563   0.60119
H          H       0.50437   0.15703   0.60119
H          H       0.84297   0.34734   0.60119
H          H       0.37067   0.53054   0.82439
H          H       0.46946   0.84013   0.82439
H          H       0.15987   0.62933   0.82439
H          H       0.62933   0.46946   0.82439
H          H       0.53054   0.15987   0.82439
H          H       0.84013   0.37067   0.82439
H          H       0.42749   0.45262   0.75000
H          H       0.54738   0.97487   0.75000
H          H       0.02513   0.57251   0.75000
H          H       0.57251   0.54738   0.75000
H          H       0.45262   0.02513   0.75000
H          H       0.97487   0.42749   0.75000
H          H       0.54470   0.57278   0.75000
H          H       0.42722   0.97192   0.75000
H          H       0.02808   0.45530   0.75000
H          H       0.45530   0.42722   0.75000
H          H       0.57278   0.02808   0.75000
H          H       0.97192   0.54470   0.75000
H          H       0.50383   0.61025   0.75000
H          H       0.38975   0.89358   0.75000
H          H       0.10642   0.49617   0.75000
H          H       0.49617   0.38975   0.75000
H          H       0.61025   0.10642   0.75000
H          H       0.89358   0.50383   0.75000
H          H       0.55769   0.16443   0.76571
H          H       0.55442   0.16632   0.27386
H          H       0.82451   0.38961   0.24330
H          H       0.82889   0.39372   0.73817
H          H       0.60845   0.43737   0.24052
H          H       0.44427   0.83289   0.23114
H          H       0.43733   0.82816   0.73457
H          H       0.16450   0.60626   0.26608
H          H       0.16678   0.61146   0.76047
H          H       0.38926   0.56102   0.25616
H          H       0.39494   0.56126   0.74749
H          H       0.61277   0.43471   0.74284
