data_crystal

_cell_length_a    26.43830
_cell_length_b    26.43830
_cell_length_c    6.57490
_cell_angle_alpha 90.00000
_cell_angle_beta  90.00000
_cell_angle_gamma 120.00000

_space_group_name_Hall 'P 1'
_space_group_name_H-M_alt  'P 1'

loop_
_symmetry_equiv_pos_as_xyz
'x,y,z' 

loop_
_atom_site_label
_atom_site_type_symbol
_atom_site_fract_x
_atom_site_fract_y
_atom_site_fract_z
C          C       0.36338   0.63520   0.50000 
C          C       0.36480   0.72818   0.50000 
C          C       0.27182   0.63662   0.50000 
C          C       0.30218   0.60575   0.50000 
C          C       0.39425   0.69643   0.50000 
C          C       0.30357   0.69782   0.50000 
C          C       0.49233   0.60807   0.50000 
C          C       0.39193   0.88426   0.50000 
C          C       0.11574   0.50767   0.50000 
C          C       0.45924   0.63309   0.50000 
C          C       0.36691   0.82615   0.50000 
C          C       0.17385   0.54076   0.50000 
O          O       0.36672   0.54865   0.50000 
O          O       0.45135   0.81807   0.50000 
O          O       0.18193   0.63328   0.50000 
C          C       0.62600   0.35281   0.50000 
C          C       0.64719   0.27319   0.50000 
C          C       0.72681   0.37400   0.50000 
C          C       0.68598   0.39304   0.50000 
C          C       0.60696   0.29294   0.50000 
C          C       0.70706   0.31402   0.50000 
C          C       0.39462   0.60193   0.50000 
C          C       0.39807   0.79269   0.50000 
C          C       0.20731   0.60538   0.50000 
C          C       0.56894   0.46225   0.50000 
C          C       0.53775   0.10669   0.50000 
C          C       0.89331   0.43106   0.50000 
C          C       0.59675   0.52326   0.50000 
C          C       0.47674   0.07349   0.50000 
C          C       0.92651   0.40325   0.50000 
C          C       0.56388   0.55139   0.50000 
C          C       0.44861   0.01249   0.50000 
C          C       0.98751   0.43612   0.50000 
C          C       0.50266   0.51857   0.50000 
C          C       0.48143   0.98409   0.50000 
C          C       0.01591   0.49734   0.50000 
C          C       0.47482   0.45762   0.50000 
C          C       0.54238   0.01720   0.50000 
C          C       0.98280   0.52518   0.50000 
C          C       0.50772   0.42958   0.50000 
C          C       0.57042   0.07814   0.50000 
C          C       0.92186   0.49228   0.50000 
N          N       0.46794   0.54613   0.50000 
N          N       0.45387   0.92181   0.50000 
N          N       0.07819   0.53206   0.50000 
C          C       0.58354   0.37335   0.50000 
C          C       0.62665   0.21019   0.50000 
C          C       0.78981   0.41646   0.50000 
N          N       0.60405   0.43493   0.50000 
N          N       0.56507   0.16912   0.50000 
N          N       0.83088   0.39595   0.50000 
O          O       0.53135   0.33801   0.50000 
O          O       0.66199   0.19334   0.50000 
O          O       0.80666   0.46865   0.50000 
H          H       0.27636   0.55597   0.50000 
H          H       0.44403   0.72039   0.50000 
H          H       0.27961   0.72364   0.50000 
H          H       0.54196   0.63633   0.50000 
H          H       0.36367   0.90563   0.50000 
H          H       0.09437   0.45804   0.50000 
H          H       0.48061   0.68272   0.50000 
H          H       0.31728   0.79789   0.50000 
H          H       0.20211   0.51939   0.50000 
H          H       0.70207   0.44189   0.50000 
H          H       0.55811   0.26018   0.50000 
H          H       0.73982   0.29793   0.50000 
H          H       0.64647   0.55032   0.50000 
H          H       0.44968   0.09615   0.50000 
H          H       0.90385   0.35353   0.50000 
H          H       0.58682   0.60113   0.50000 
H          H       0.39887   0.98569   0.50000 
H          H       0.01431   0.41318   0.50000 
H          H       0.42510   0.43060   0.50000 
H          H       0.56940   0.99450   0.50000 
H          H       0.00550   0.57490   0.50000 
H          H       0.48453   0.37982   0.50000 
H          H       0.62018   0.10471   0.50000 
H          H       0.89529   0.51547   0.50000 
H          H       0.41983   0.51696   0.50000 
H          H       0.48304   0.90287   0.50000 
H          H       0.09713   0.58017   0.50000 
H          H       0.65241   0.46212   0.50000 
H          H       0.53788   0.19029   0.50000 
H          H       0.80971   0.34759   0.50000 
C          C       0.69685   0.30205   0.00000 
C          C       0.69795   0.39480   0.00000 
C          C       0.60520   0.30315   0.00000 
C          C       0.63567   0.27243   0.00000 
C          C       0.72757   0.36324   0.00000 
C          C       0.63676   0.36433   0.00000 
C          C       0.82601   0.27547   0.00000 
C          C       0.72453   0.55054   0.00000 
C          C       0.44946   0.17399   0.00000 
C          C       0.79283   0.30038   0.00000 
C          C       0.69962   0.49245   0.00000 
C          C       0.50755   0.20717   0.00000 
O          O       0.70045   0.21571   0.00000 
O          O       0.78429   0.48474   0.00000 
O          O       0.51526   0.29955   0.00000 
C          C       0.95944   0.01969   0.00000 
C          C       0.98031   0.93975   0.00000 
C          C       0.06025   0.04056   0.00000 
C          C       0.01951   0.05977   0.00000 
C          C       0.94023   0.95974   0.00000 
C          C       0.04026   0.98049   0.00000 
C          C       0.72822   0.26899   0.00000 
C          C       0.73101   0.45923   0.00000 
C          C       0.54077   0.27178   0.00000 
C          C       0.90241   0.12940   0.00000 
C          C       0.87060   0.77301   0.00000 
C          C       0.22699   0.09759   0.00000 
C          C       0.93026   0.19042   0.00000 
C          C       0.80958   0.73984   0.00000 
C          C       0.26016   0.06974   0.00000 
C          C       0.89747   0.21864   0.00000 
C          C       0.78136   0.67883   0.00000 
C          C       0.32117   0.10253   0.00000 
C          C       0.83626   0.18590   0.00000 
C          C       0.81410   0.65036   0.00000 
C          C       0.34964   0.16374   0.00000 
C          C       0.80835   0.12493   0.00000 
C          C       0.87507   0.68342   0.00000 
C          C       0.31658   0.19165   0.00000 
C          C       0.84118   0.09680   0.00000 
C          C       0.90320   0.74438   0.00000 
C          C       0.25562   0.15882   0.00000 
N          N       0.80163   0.21353   0.00000 
N          N       0.78647   0.58810   0.00000 
N          N       0.41190   0.19837   0.00000 
C          C       0.91701   0.04040   0.00000 
C          C       0.95960   0.87661   0.00000 
C          C       0.12339   0.08299   0.00000 
N          N       0.93751   0.10200   0.00000 
N          N       0.89800   0.83551   0.00000 
N          N       0.16449   0.06249   0.00000 
O          O       0.86480   0.00511   0.00000 
O          O       0.99489   0.85969   0.00000 
O          O       0.14031   0.13520   0.00000 
H          H       0.60999   0.22265   0.00000 
H          H       0.77735   0.38734   0.00000 
H          H       0.61266   0.39001   0.00000 
H          H       0.87563   0.30381   0.00000 
H          H       0.69619   0.57182   0.00000 
H          H       0.42818   0.12437   0.00000 
H          H       0.81411   0.35000   0.00000 
H          H       0.65000   0.46411   0.00000 
H          H       0.53589   0.18589   0.00000 
H          H       0.03577   0.10865   0.00000 
H          H       0.89135   0.92712   0.00000 
H          H       0.07288   0.96423   0.00000 
H          H       0.97999   0.21745   0.00000 
H          H       0.78255   0.76254   0.00000 
H          H       0.23746   0.02001   0.00000 
H          H       0.92048   0.26838   0.00000 
H          H       0.73162   0.65210   0.00000 
H          H       0.34790   0.07952   0.00000 
H          H       0.75862   0.09797   0.00000 
H          H       0.90203   0.66065   0.00000 
H          H       0.33935   0.24138   0.00000 
H          H       0.81791   0.04705   0.00000 
H          H       0.95295   0.77086   0.00000 
H          H       0.22914   0.18209   0.00000 
H          H       0.75351   0.18436   0.00000 
H          H       0.81564   0.56915   0.00000 
H          H       0.43085   0.24649   0.00000 
H          H       0.98587   0.12916   0.00000 
H          H       0.87084   0.85671   0.00000 
H          H       0.14329   0.01413   0.00000 
