data_crystal

_cell_length_a    37.62890
_cell_length_b    37.62890
_cell_length_c    6.42730
_cell_angle_alpha 90.00000
_cell_angle_beta  90.00000
_cell_angle_gamma 120.00000

_space_group_name_Hall 'P 1'
_space_group_name_H-M_alt  'P 1'

loop_
_symmetry_equiv_pos_as_xyz
'x,y,z' 

loop_
_atom_site_label
_atom_site_type_symbol
_atom_site_fract_x
_atom_site_fract_y
_atom_site_fract_z
C          C       0.68517   0.30875   0.25000 
C          C       0.69125   0.37642   0.25000 
C          C       0.62358   0.31483   0.25000 
C          C       0.31483   0.69125   0.75000 
C          C       0.30875   0.62358   0.75000 
C          C       0.37642   0.68517   0.75000 
C          C       0.64233   0.29067   0.25000 
C          C       0.70933   0.35166   0.25000 
C          C       0.64834   0.35767   0.25000 
C          C       0.35767   0.70933   0.75000 
C          C       0.29067   0.64834   0.75000 
C          C       0.35166   0.64233   0.75000 
C          C       0.77070   0.28212   0.25000 
C          C       0.71788   0.48858   0.25000 
C          C       0.51142   0.22930   0.25000 
C          C       0.22930   0.71788   0.75000 
C          C       0.28212   0.51142   0.75000 
C          C       0.48858   0.77070   0.75000 
C          C       0.74958   0.30196   0.25000 
C          C       0.69804   0.44762   0.25000 
C          C       0.55238   0.25042   0.25000 
C          C       0.25042   0.69804   0.75000 
C          C       0.30196   0.55238   0.75000 
C          C       0.44762   0.74958   0.75000 
O          O       0.68268   0.24553   0.25000 
O          O       0.75447   0.43715   0.25000 
O          O       0.56285   0.31732   0.25000 
O          O       0.31732   0.75447   0.75000 
O          O       0.24553   0.56285   0.75000 
O          O       0.43715   0.68268   0.75000 
C          C       0.70438   0.28279   0.25000 
C          C       0.71721   0.42159   0.25000 
C          C       0.57841   0.29562   0.25000 
C          C       0.29562   0.71721   0.75000 
C          C       0.28279   0.57841   0.75000 
C          C       0.42159   0.70438   0.75000 
N          N       0.75138   0.23833   0.25000 
N          N       0.76167   0.51305   0.25000 
N          N       0.48695   0.24862   0.25000 
N          N       0.24862   0.76167   0.75000 
N          N       0.23833   0.48695   0.75000 
N          N       0.51305   0.75138   0.75000 
O          O       0.71105   0.14597   0.25000 
O          O       0.85403   0.56508   0.25000 
O          O       0.43492   0.28895   0.25000 
O          O       0.28895   0.85403   0.75000 
O          O       0.14597   0.43492   0.75000 
O          O       0.56508   0.71105   0.75000 
C          C       0.68445   0.16255   0.25000 
C          C       0.83745   0.52190   0.25000 
C          C       0.47810   0.31555   0.25000 
C          C       0.31555   0.83745   0.75000 
C          C       0.16255   0.47810   0.75000 
C          C       0.52190   0.68445   0.75000 
C          C       0.77387   0.21683   0.25000 
C          C       0.78317   0.55704   0.25000 
C          C       0.44296   0.22613   0.25000 
C          C       0.22613   0.78317   0.75000 
C          C       0.21683   0.44296   0.75000 
C          C       0.55704   0.77387   0.75000 
C          C       0.75382   0.17309   0.25000 
C          C       0.82691   0.58073   0.25000 
C          C       0.41927   0.24618   0.25000 
C          C       0.24618   0.82691   0.75000 
C          C       0.17309   0.41927   0.75000 
C          C       0.58073   0.75382   0.75000 
C          C       0.77796   0.15438   0.25000 
C          C       0.84562   0.62358   0.25000 
C          C       0.37642   0.22204   0.25000 
C          C       0.22204   0.84562   0.75000 
C          C       0.15438   0.37642   0.75000 
C          C       0.62358   0.77796   0.75000 
C          C       0.82094   0.17723   0.25000 
C          C       0.82277   0.64371   0.25000 
C          C       0.35629   0.17906   0.25000 
C          C       0.17906   0.82277   0.75000 
C          C       0.17723   0.35629   0.75000 
C          C       0.64371   0.82094   0.75000 
C          C       0.84016   0.22007   0.25000 
C          C       0.77993   0.62009   0.25000 
C          C       0.37991   0.15984   0.25000 
C          C       0.15984   0.77993   0.75000 
C          C       0.22007   0.37991   0.75000 
C          C       0.62009   0.84016   0.75000 
C          C       0.81693   0.23953   0.25000 
C          C       0.76047   0.57740   0.25000 
C          C       0.42260   0.18307   0.25000 
C          C       0.18307   0.76047   0.75000 
C          C       0.23953   0.42260   0.75000 
C          C       0.57740   0.81693   0.75000 
C          C       0.98163   0.02569   0.25000 
C          C       0.97431   0.95594   0.25000 
C          C       0.04406   0.01837   0.25000 
C          C       0.01837   0.97431   0.75000 
C          C       0.02569   0.04406   0.75000 
C          C       0.95594   0.98163   0.75000 
C          C       0.02427   0.04377   0.25000 
C          C       0.95623   0.98050   0.25000 
C          C       0.01950   0.97573   0.25000 
C          C       0.97573   0.95623   0.75000 
C          C       0.04377   0.01950   0.75000 
C          C       0.98050   0.02427   0.75000 
C          C       0.89582   0.05153   0.25000 
C          C       0.94847   0.84429   0.25000 
C          C       0.15571   0.10418   0.25000 
C          C       0.10418   0.94847   0.75000 
C          C       0.05153   0.15571   0.75000 
C          C       0.84429   0.89582   0.75000 
C          C       0.91712   0.03191   0.25000 
C          C       0.96809   0.88521   0.25000 
C          C       0.11479   0.08288   0.25000 
C          C       0.08288   0.96809   0.75000 
C          C       0.03191   0.11479   0.75000 
C          C       0.88521   0.91712   0.75000 
O          O       0.98383   0.08871   0.25000 
O          O       0.91129   0.89512   0.25000 
O          O       0.10488   0.01617   0.25000 
O          O       0.01617   0.91129   0.75000 
O          O       0.08871   0.10488   0.75000 
O          O       0.89512   0.98383   0.75000 
C          C       0.96231   0.05143   0.25000 
C          C       0.94857   0.91088   0.25000 
C          C       0.08912   0.03769   0.25000 
C          C       0.03769   0.94857   0.75000 
C          C       0.05143   0.08912   0.75000 
C          C       0.91088   0.96231   0.75000 
N          N       0.91506   0.09531   0.25000 
N          N       0.90469   0.81975   0.25000 
N          N       0.18025   0.08494   0.25000 
N          N       0.08494   0.90469   0.75000 
N          N       0.09531   0.18025   0.75000 
N          N       0.81975   0.91506   0.75000 
O          O       0.95543   0.18763   0.25000 
O          O       0.81237   0.76780   0.25000 
O          O       0.23220   0.04457   0.25000 
O          O       0.04457   0.81237   0.75000 
O          O       0.18763   0.23220   0.75000 
O          O       0.76780   0.95543   0.75000 
C          C       0.98204   0.17105   0.25000 
C          C       0.82895   0.81099   0.25000 
C          C       0.18901   0.01796   0.25000 
C          C       0.01796   0.82895   0.75000 
C          C       0.17105   0.18901   0.75000 
C          C       0.81099   0.98204   0.75000 
C          C       0.89257   0.11679   0.25000 
C          C       0.88321   0.77578   0.25000 
C          C       0.22422   0.10743   0.25000 
C          C       0.10743   0.88321   0.75000 
C          C       0.11679   0.22422   0.75000 
C          C       0.77578   0.89257   0.75000 
C          C       0.91265   0.16052   0.25000 
C          C       0.83948   0.75213   0.25000 
C          C       0.24787   0.08735   0.25000 
C          C       0.08735   0.83948   0.75000 
C          C       0.16052   0.24787   0.75000 
C          C       0.75213   0.91265   0.75000 
C          C       0.88851   0.17924   0.25000 
C          C       0.82076   0.70927   0.25000 
C          C       0.29073   0.11149   0.25000 
C          C       0.11149   0.82076   0.75000 
C          C       0.17924   0.29073   0.75000 
C          C       0.70927   0.88851   0.75000 
C          C       0.84554   0.15639   0.25000 
C          C       0.84361   0.68915   0.25000 
C          C       0.31085   0.15446   0.25000 
C          C       0.15446   0.84361   0.75000 
C          C       0.15639   0.31085   0.75000 
C          C       0.68915   0.84554   0.75000 
C          C       0.82630   0.11355   0.25000 
C          C       0.88645   0.71275   0.25000 
C          C       0.28725   0.17370   0.25000 
C          C       0.17370   0.88645   0.75000 
C          C       0.11355   0.28725   0.75000 
C          C       0.71275   0.82630   0.75000 
C          C       0.84952   0.09408   0.25000 
C          C       0.90592   0.75544   0.25000 
C          C       0.24456   0.15048   0.25000 
C          C       0.15048   0.90592   0.75000 
C          C       0.09408   0.24456   0.75000 
C          C       0.75544   0.84952   0.75000 
H          H       0.62219   0.25583   0.25000 
H          H       0.74417   0.36636   0.25000 
H          H       0.63364   0.37781   0.25000 
H          H       0.37781   0.74417   0.75000 
H          H       0.25583   0.63364   0.75000 
H          H       0.36636   0.62219   0.75000 
H          H       0.80567   0.30015   0.25000 
H          H       0.69985   0.50552   0.25000 
H          H       0.49448   0.19433   0.25000 
H          H       0.19433   0.69985   0.75000 
H          H       0.30015   0.49448   0.75000 
H          H       0.50552   0.80567   0.75000 
H          H       0.76652   0.33694   0.25000 
H          H       0.66306   0.42958   0.25000 
H          H       0.57042   0.23348   0.25000 
H          H       0.23348   0.66306   0.75000 
H          H       0.33694   0.57042   0.75000 
H          H       0.42958   0.76652   0.75000 
H          H       0.71739   0.21934   0.25000 
H          H       0.78066   0.49805   0.25000 
H          H       0.50195   0.28261   0.25000 
H          H       0.28261   0.78066   0.75000 
H          H       0.21934   0.50195   0.75000 
H          H       0.49805   0.71739   0.75000 
H          H       0.65440   0.14021   0.33004 
H          H       0.85979   0.51419   0.33004 
H          H       0.48581   0.34560   0.33004 
H          H       0.34560   0.85979   0.83004 
H          H       0.14021   0.48581   0.83004 
H          H       0.51419   0.65440   0.83004 
H          H       0.67798   0.16774   0.08283 
H          H       0.83226   0.51024   0.08283 
H          H       0.48976   0.32202   0.08283 
H          H       0.32202   0.83226   0.58283 
H          H       0.16774   0.48976   0.58283 
H          H       0.51024   0.67798   0.58283 
H          H       0.69963   0.19302   0.33713 
H          H       0.80698   0.50661   0.33713 
H          H       0.49339   0.30037   0.33713 
H          H       0.30037   0.80698   0.83713 
H          H       0.19302   0.49339   0.83713 
H          H       0.50661   0.69963   0.83713 
H          H       0.76273   0.11949   0.25000 
H          H       0.88051   0.64324   0.25000 
H          H       0.35676   0.23727   0.25000 
H          H       0.23727   0.88051   0.75000 
H          H       0.11949   0.35676   0.75000 
H          H       0.64324   0.76273   0.75000 
H          H       0.87508   0.23932   0.25000 
H          H       0.76068   0.63576   0.25000 
H          H       0.36424   0.12492   0.25000 
H          H       0.12492   0.76068   0.75000 
H          H       0.23932   0.36424   0.75000 
H          H       0.63576   0.87508   0.75000 
H          H       0.83347   0.27449   0.25000 
H          H       0.72551   0.55898   0.25000 
H          H       0.44102   0.16653   0.25000 
H          H       0.16653   0.72551   0.75000 
H          H       0.27449   0.44102   0.75000 
H          H       0.55898   0.83347   0.75000 
H          H       0.98163   0.02569   0.42737 
H          H       0.97431   0.95594   0.42737 
H          H       0.04406   0.01837   0.42737 
H          H       0.01837   0.97431   0.92737 
H          H       0.02569   0.04406   0.92737 
H          H       0.95594   0.98163   0.92737 
H          H       0.03632   0.06496   0.10912 
H          H       0.93504   0.97136   0.10912 
H          H       0.02864   0.96368   0.10912 
H          H       0.96368   0.93504   0.60912 
H          H       0.06496   0.02864   0.60912 
H          H       0.97136   0.03632   0.60912 
H          H       0.03401   0.06397   0.39482 
H          H       0.93603   0.97004   0.39482 
H          H       0.02996   0.96599   0.39482 
H          H       0.96599   0.93603   0.89482 
H          H       0.06397   0.02996   0.89482 
H          H       0.97004   0.03401   0.89482 
H          H       0.86085   0.03333   0.25000 
H          H       0.96667   0.82752   0.25000 
H          H       0.17248   0.13915   0.25000 
H          H       0.13915   0.96667   0.75000 
H          H       0.03333   0.17248   0.75000 
H          H       0.82752   0.86085   0.75000 
H          H       0.90034   0.99693   0.25000 
H          H       0.00307   0.90341   0.25000 
H          H       0.09659   0.09966   0.25000 
H          H       0.09966   0.00307   0.75000 
H          H       0.99693   0.09659   0.75000 
H          H       0.90341   0.90034   0.75000 
H          H       0.94904   0.11435   0.25000 
H          H       0.88565   0.83469   0.25000 
H          H       0.16531   0.05096   0.25000 
H          H       0.05096   0.88565   0.75000 
H          H       0.11435   0.16531   0.75000 
H          H       0.83469   0.94904   0.75000 
H          H       0.98981   0.16737   0.08283 
H          H       0.83263   0.82244   0.08283 
H          H       0.17756   0.01019   0.08283 
H          H       0.01019   0.83263   0.58283 
H          H       0.16737   0.17756   0.58283 
H          H       0.82244   0.98981   0.58283 
H          H       0.96623   0.13983   0.33001 
H          H       0.86017   0.82640   0.33001 
H          H       0.17360   0.03377   0.33001 
H          H       0.03377   0.86017   0.83001 
H          H       0.13983   0.17360   0.83001 
H          H       0.82640   0.96623   0.83001 
H          H       0.01145   0.19265   0.33716 
H          H       0.80735   0.81880   0.33716 
H          H       0.18120   0.98855   0.33716 
H          H       0.98855   0.80735   0.83716 
H          H       0.19265   0.18120   0.83716 
H          H       0.81880   0.01145   0.83716 
H          H       0.90375   0.21413   0.25000 
H          H       0.78587   0.68962   0.25000 
H          H       0.31038   0.09625   0.25000 
H          H       0.09625   0.78587   0.75000 
H          H       0.21413   0.31038   0.75000 
H          H       0.68962   0.90375   0.75000 
H          H       0.79138   0.09430   0.25000 
H          H       0.90570   0.69708   0.25000 
H          H       0.30292   0.20862   0.25000 
H          H       0.20862   0.90570   0.75000 
H          H       0.09430   0.30292   0.75000 
H          H       0.69708   0.79138   0.75000 
H          H       0.83299   0.05912   0.25000 
H          H       0.94088   0.77387   0.25000 
H          H       0.22613   0.16701   0.25000 
H          H       0.16701   0.94088   0.75000 
H          H       0.05912   0.22613   0.75000 
H          H       0.77387   0.83299   0.75000 
