data_crystal

_cell_length_a    26.52610
_cell_length_b    26.52610
_cell_length_c    7.03080
_cell_angle_alpha 90.00000
_cell_angle_beta  90.00000
_cell_angle_gamma 120.00000

_space_group_name_Hall 'P 1'
_space_group_name_H-M_alt  'P 1'

loop_
_symmetry_equiv_pos_as_xyz
'x,y,z' 

loop_
_atom_site_label
_atom_site_type_symbol
_atom_site_fract_x
_atom_site_fract_y
_atom_site_fract_z
C          C       0.36292   0.63480   0.25000 
C          C       0.36520   0.72812   0.25000 
C          C       0.27188   0.63708   0.25000 
C          C       0.30177   0.60579   0.25000 
C          C       0.39421   0.69598   0.25000 
C          C       0.30402   0.69823   0.25000 
C          C       0.49102   0.60661   0.25000 
C          C       0.39339   0.88441   0.25000 
C          C       0.11559   0.50898   0.25000 
C          C       0.45823   0.63191   0.25000 
C          C       0.36809   0.82632   0.25000 
C          C       0.17368   0.54177   0.25000 
O          O       0.36549   0.54788   0.25000 
O          O       0.45212   0.81761   0.25000 
O          O       0.18239   0.63451   0.25000 
C          C       0.62575   0.35251   0.25000 
C          C       0.64749   0.27324   0.25000 
C          C       0.72676   0.37425   0.25000 
C          C       0.68568   0.39296   0.25000 
C          C       0.60704   0.29272   0.25000 
C          C       0.70728   0.31432   0.25000 
C          C       0.39369   0.60113   0.25000 
C          C       0.39887   0.79256   0.25000 
C          C       0.20744   0.60631   0.25000 
C          C       0.56774   0.46122   0.25000 
C          C       0.53878   0.10652   0.25000 
C          C       0.89348   0.43226   0.25000 
C          C       0.59533   0.52217   0.25000 
C          C       0.47783   0.07316   0.25000 
C          C       0.92684   0.40467   0.25000 
C          C       0.56233   0.55011   0.25000 
C          C       0.44989   0.01222   0.25000 
C          C       0.98778   0.43767   0.25000 
C          C       0.50116   0.51717   0.25000 
C          C       0.48283   0.98399   0.25000 
C          C       0.01601   0.49884   0.25000 
C          C       0.47349   0.45625   0.25000 
C          C       0.54375   0.01724   0.25000 
C          C       0.98276   0.52651   0.25000 
C          C       0.50655   0.42838   0.25000 
C          C       0.57162   0.07817   0.25000 
C          C       0.92183   0.49345   0.25000 
N          N       0.46641   0.54467   0.25000 
N          N       0.45533   0.92174   0.25000 
N          N       0.07826   0.53359   0.25000 
C          C       0.58300   0.37272   0.25000 
C          C       0.62728   0.21028   0.25000 
C          C       0.78972   0.41700   0.25000 
N          N       0.60311   0.43419   0.25000 
N          N       0.56581   0.16892   0.25000 
N          N       0.83108   0.39689   0.25000 
O          O       0.53089   0.33717   0.25000 
O          O       0.66283   0.19372   0.25000 
O          O       0.80628   0.46911   0.25000 
H          H       0.27562   0.55604   0.25000 
H          H       0.44396   0.71958   0.25000 
H          H       0.28042   0.72438   0.25000 
H          H       0.54066   0.63463   0.25000 
H          H       0.36537   0.90603   0.25000 
H          H       0.09397   0.45934   0.25000 
H          H       0.47984   0.68154   0.25000 
H          H       0.31846   0.79830   0.25000 
H          H       0.20170   0.52016   0.25000 
H          H       0.70153   0.44175   0.25000 
H          H       0.55825   0.25978   0.25000 
H          H       0.74022   0.29847   0.25000 
H          H       0.64502   0.54938   0.25000 
H          H       0.45062   0.09564   0.25000 
H          H       0.90436   0.35498   0.25000 
H          H       0.58512   0.59982   0.25000 
H          H       0.40018   0.98530   0.25000 
H          H       0.01470   0.41488   0.25000 
H          H       0.42379   0.42912   0.25000 
H          H       0.57088   0.99467   0.25000 
H          H       0.00533   0.57621   0.25000 
H          H       0.48351   0.37865   0.25000 
H          H       0.62135   0.10486   0.25000 
H          H       0.89514   0.51649   0.25000 
H          H       0.41829   0.51567   0.25000 
H          H       0.48433   0.90262   0.25000 
H          H       0.09738   0.58171   0.25000 
H          H       0.65143   0.46158   0.25000 
H          H       0.53842   0.18985   0.25000 
H          H       0.81015   0.34857   0.25000 
C          C       0.36292   0.63480   0.75000 
C          C       0.36520   0.72812   0.75000 
C          C       0.27188   0.63708   0.75000 
C          C       0.30177   0.60579   0.75000 
C          C       0.39421   0.69598   0.75000 
C          C       0.30402   0.69823   0.75000 
C          C       0.49102   0.60661   0.75000 
C          C       0.39339   0.88441   0.75000 
C          C       0.11559   0.50898   0.75000 
C          C       0.45823   0.63191   0.75000 
C          C       0.36809   0.82632   0.75000 
C          C       0.17368   0.54177   0.75000 
O          O       0.36549   0.54788   0.75000 
O          O       0.45212   0.81761   0.75000 
O          O       0.18239   0.63451   0.75000 
C          C       0.62575   0.35251   0.75000 
C          C       0.64749   0.27324   0.75000 
C          C       0.72676   0.37425   0.75000 
C          C       0.68568   0.39296   0.75000 
C          C       0.60704   0.29272   0.75000 
C          C       0.70728   0.31432   0.75000 
C          C       0.39369   0.60113   0.75000 
C          C       0.39887   0.79256   0.75000 
C          C       0.20744   0.60631   0.75000 
C          C       0.56774   0.46122   0.75000 
C          C       0.53878   0.10652   0.75000 
C          C       0.89348   0.43226   0.75000 
C          C       0.59533   0.52217   0.75000 
C          C       0.47783   0.07316   0.75000 
C          C       0.92684   0.40467   0.75000 
C          C       0.56233   0.55011   0.75000 
C          C       0.44989   0.01222   0.75000 
C          C       0.98778   0.43767   0.75000 
C          C       0.50116   0.51717   0.75000 
C          C       0.48283   0.98399   0.75000 
C          C       0.01601   0.49884   0.75000 
C          C       0.47349   0.45625   0.75000 
C          C       0.54375   0.01724   0.75000 
C          C       0.98276   0.52651   0.75000 
C          C       0.50655   0.42838   0.75000 
C          C       0.57162   0.07817   0.75000 
C          C       0.92183   0.49345   0.75000 
N          N       0.46641   0.54467   0.75000 
N          N       0.45533   0.92174   0.75000 
N          N       0.07826   0.53359   0.75000 
C          C       0.58300   0.37272   0.75000 
C          C       0.62728   0.21028   0.75000 
C          C       0.78972   0.41700   0.75000 
N          N       0.60311   0.43419   0.75000 
N          N       0.56581   0.16892   0.75000 
N          N       0.83108   0.39689   0.75000 
O          O       0.53089   0.33717   0.75000 
O          O       0.66283   0.19372   0.75000 
O          O       0.80628   0.46911   0.75000 
H          H       0.27562   0.55604   0.75000 
H          H       0.44396   0.71958   0.75000 
H          H       0.28042   0.72438   0.75000 
H          H       0.54066   0.63463   0.75000 
H          H       0.36537   0.90603   0.75000 
H          H       0.09397   0.45934   0.75000 
H          H       0.47984   0.68154   0.75000 
H          H       0.31846   0.79830   0.75000 
H          H       0.20170   0.52016   0.75000 
H          H       0.70153   0.44175   0.75000 
H          H       0.55825   0.25978   0.75000 
H          H       0.74022   0.29847   0.75000 
H          H       0.64502   0.54938   0.75000 
H          H       0.45062   0.09564   0.75000 
H          H       0.90436   0.35498   0.75000 
H          H       0.58512   0.59982   0.75000 
H          H       0.40018   0.98530   0.75000 
H          H       0.01470   0.41488   0.75000 
H          H       0.42379   0.42912   0.75000 
H          H       0.57088   0.99467   0.75000 
H          H       0.00533   0.57621   0.75000 
H          H       0.48351   0.37865   0.75000 
H          H       0.62135   0.10486   0.75000 
H          H       0.89514   0.51649   0.75000 
H          H       0.41829   0.51567   0.75000 
H          H       0.48433   0.90262   0.75000 
H          H       0.09738   0.58171   0.75000 
H          H       0.65143   0.46158   0.75000 
H          H       0.53842   0.18985   0.75000 
H          H       0.81015   0.34857   0.75000 
