data_crystal

_cell_length_a    30.11080
_cell_length_b    30.11080
_cell_length_c    7.18720
_cell_angle_alpha 90.00000
_cell_angle_beta  90.00000
_cell_angle_gamma 120.00000

_space_group_name_Hall 'P 1'
_space_group_name_H-M_alt  'P 1'

loop_
_symmetry_equiv_pos_as_xyz
'x,y,z' 

loop_
_atom_site_label
_atom_site_type_symbol
_atom_site_fract_x
_atom_site_fract_y
_atom_site_fract_z
C          C       0.35892   0.63827   0.25000 
C          C       0.36173   0.72065   0.25000 
C          C       0.27935   0.64108   0.25000 
C          C       0.64108   0.36173   0.25000 
C          C       0.63827   0.27935   0.25000 
C          C       0.72065   0.35892   0.25000 
C          C       0.30521   0.61318   0.25000 
C          C       0.38682   0.69203   0.25000 
C          C       0.30797   0.69479   0.25000 
C          C       0.69479   0.38682   0.25000 
C          C       0.61318   0.30797   0.25000 
C          C       0.69203   0.30521   0.25000 
C          C       0.47067   0.61225   0.25000 
C          C       0.38775   0.85842   0.25000 
C          C       0.14158   0.52933   0.25000 
C          C       0.52933   0.38775   0.25000 
C          C       0.61225   0.14158   0.25000 
C          C       0.85842   0.47067   0.25000 
C          C       0.44224   0.63489   0.25000 
C          C       0.36511   0.80735   0.25000 
C          C       0.19265   0.55776   0.25000 
C          C       0.55776   0.36511   0.25000 
C          C       0.63489   0.19265   0.25000 
C          C       0.80735   0.44224   0.25000 
O          O       0.36042   0.56150   0.25000 
O          O       0.43850   0.79892   0.25000 
O          O       0.20108   0.63958   0.25000 
O          O       0.63958   0.43850   0.25000 
O          O       0.56150   0.20108   0.25000 
O          O       0.79892   0.36042   0.25000 
C          C       0.38554   0.60827   0.25000 
C          C       0.39173   0.77727   0.25000 
C          C       0.22273   0.61446   0.25000 
C          C       0.61446   0.39173   0.25000 
C          C       0.60827   0.22273   0.25000 
C          C       0.77727   0.38554   0.25000 
C          C       0.52396   0.46985   0.25000 
C          C       0.53015   0.05411   0.25000 
C          C       0.94589   0.47604   0.25000 
C          C       0.47604   0.53015   0.25000 
C          C       0.46985   0.94589   0.25000 
C          C       0.05411   0.52396   0.25000 
C          C       0.55317   0.52336   0.25000 
C          C       0.47664   0.02981   0.25000 
C          C       0.97019   0.44683   0.25000 
C          C       0.44683   0.47664   0.25000 
C          C       0.52336   0.97019   0.25000 
C          C       0.02981   0.55317   0.25000 
C          C       0.53020   0.55379   0.25000 
C          C       0.44621   0.97641   0.25000 
C          C       0.02359   0.46980   0.25000 
C          C       0.46980   0.44621   0.25000 
C          C       0.55379   0.02359   0.25000 
C          C       0.97641   0.53020   0.25000 
N          N       0.44859   0.55778   0.25000 
N          N       0.44222   0.89081   0.25000 
N          N       0.10919   0.55141   0.25000 
N          N       0.55141   0.44222   0.25000 
N          N       0.55778   0.10919   0.25000 
N          N       0.89081   0.44859   0.25000 
C          C       0.56505   0.61045   0.25000 
C          C       0.38955   0.95460   0.25000 
C          C       0.04540   0.43495   0.25000 
C          C       0.43495   0.38955   0.25000 
C          C       0.61045   0.04540   0.25000 
C          C       0.95460   0.56505   0.25000 
H          H       0.28192   0.56947   0.25000 
H          H       0.43053   0.71245   0.25000 
H          H       0.28755   0.71808   0.25000 
H          H       0.71808   0.43053   0.25000 
H          H       0.56947   0.28755   0.25000 
H          H       0.71245   0.28192   0.25000 
H          H       0.51432   0.63655   0.25000 
H          H       0.36345   0.87777   0.25000 
H          H       0.12223   0.48568   0.25000 
H          H       0.48568   0.36345   0.25000 
H          H       0.63655   0.12223   0.25000 
H          H       0.87777   0.51432   0.25000 
H          H       0.46159   0.67854   0.25000 
H          H       0.32146   0.78305   0.25000 
H          H       0.21695   0.53841   0.25000 
H          H       0.53841   0.32146   0.25000 
H          H       0.67854   0.21695   0.25000 
H          H       0.78305   0.46159   0.25000 
H          H       0.59685   0.54320   0.25000 
H          H       0.45680   0.05365   0.25000 
H          H       0.94635   0.40315   0.25000 
H          H       0.40315   0.45680   0.25000 
H          H       0.54320   0.94635   0.25000 
H          H       0.05365   0.59685   0.25000 
H          H       0.40625   0.53260   0.25000 
H          H       0.46740   0.87365   0.25000 
H          H       0.12635   0.59375   0.25000 
H          H       0.59375   0.46740   0.25000 
H          H       0.53260   0.12635   0.25000 
H          H       0.87365   0.40625   0.25000 
H          H       0.57316   0.62503   0.09683 
H          H       0.37497   0.94813   0.09683 
H          H       0.05187   0.42684   0.09683 
H          H       0.42684   0.37497   0.09683 
H          H       0.62503   0.05187   0.09683 
H          H       0.94813   0.57316   0.09683 
H          H       0.60263   0.62014   0.32341 
H          H       0.37986   0.98249   0.32341 
H          H       0.01751   0.39737   0.32341 
H          H       0.39737   0.37986   0.32341 
H          H       0.62014   0.01751   0.32341 
H          H       0.98249   0.60263   0.32341 
H          H       0.54603   0.62954   0.32976 
H          H       0.37046   0.91649   0.32976 
H          H       0.08351   0.45397   0.32976 
H          H       0.45397   0.37046   0.32976 
H          H       0.62954   0.08351   0.32976 
H          H       0.91649   0.54603   0.32976 
C          C       0.35892   0.63827   0.75000 
C          C       0.36173   0.72065   0.75000 
C          C       0.27935   0.64108   0.75000 
C          C       0.64108   0.36173   0.75000 
C          C       0.63827   0.27935   0.75000 
C          C       0.72065   0.35892   0.75000 
C          C       0.30521   0.61318   0.75000 
C          C       0.38682   0.69203   0.75000 
C          C       0.30797   0.69479   0.75000 
C          C       0.69479   0.38682   0.75000 
C          C       0.61318   0.30797   0.75000 
C          C       0.69203   0.30521   0.75000 
C          C       0.47067   0.61225   0.75000 
C          C       0.38775   0.85842   0.75000 
C          C       0.14158   0.52933   0.75000 
C          C       0.52933   0.38775   0.75000 
C          C       0.61225   0.14158   0.75000 
C          C       0.85842   0.47067   0.75000 
C          C       0.44224   0.63489   0.75000 
C          C       0.36511   0.80735   0.75000 
C          C       0.19265   0.55776   0.75000 
C          C       0.55776   0.36511   0.75000 
C          C       0.63489   0.19265   0.75000 
C          C       0.80735   0.44224   0.75000 
O          O       0.36042   0.56150   0.75000 
O          O       0.43850   0.79892   0.75000 
O          O       0.20108   0.63958   0.75000 
O          O       0.63958   0.43850   0.75000 
O          O       0.56150   0.20108   0.75000 
O          O       0.79892   0.36042   0.75000 
C          C       0.38554   0.60827   0.75000 
C          C       0.39173   0.77727   0.75000 
C          C       0.22273   0.61446   0.75000 
C          C       0.61446   0.39173   0.75000 
C          C       0.60827   0.22273   0.75000 
C          C       0.77727   0.38554   0.75000 
C          C       0.52396   0.46985   0.75000 
C          C       0.53015   0.05411   0.75000 
C          C       0.94589   0.47604   0.75000 
C          C       0.47604   0.53015   0.75000 
C          C       0.46985   0.94589   0.75000 
C          C       0.05411   0.52396   0.75000 
C          C       0.55317   0.52336   0.75000 
C          C       0.47664   0.02981   0.75000 
C          C       0.97019   0.44683   0.75000 
C          C       0.44683   0.47664   0.75000 
C          C       0.52336   0.97019   0.75000 
C          C       0.02981   0.55317   0.75000 
C          C       0.53020   0.55379   0.75000 
C          C       0.44621   0.97641   0.75000 
C          C       0.02359   0.46980   0.75000 
C          C       0.46980   0.44621   0.75000 
C          C       0.55379   0.02359   0.75000 
C          C       0.97641   0.53020   0.75000 
N          N       0.44859   0.55778   0.75000 
N          N       0.44222   0.89081   0.75000 
N          N       0.10919   0.55141   0.75000 
N          N       0.55141   0.44222   0.75000 
N          N       0.55778   0.10919   0.75000 
N          N       0.89081   0.44859   0.75000 
C          C       0.56505   0.61045   0.75000 
C          C       0.38955   0.95460   0.75000 
C          C       0.04540   0.43495   0.75000 
C          C       0.43495   0.38955   0.75000 
C          C       0.61045   0.04540   0.75000 
C          C       0.95460   0.56505   0.75000 
H          H       0.28192   0.56947   0.75000 
H          H       0.43053   0.71245   0.75000 
H          H       0.28755   0.71808   0.75000 
H          H       0.71808   0.43053   0.75000 
H          H       0.56947   0.28755   0.75000 
H          H       0.71245   0.28192   0.75000 
H          H       0.51432   0.63655   0.75000 
H          H       0.36345   0.87777   0.75000 
H          H       0.12223   0.48568   0.75000 
H          H       0.48568   0.36345   0.75000 
H          H       0.63655   0.12223   0.75000 
H          H       0.87777   0.51432   0.75000 
H          H       0.46159   0.67854   0.75000 
H          H       0.32146   0.78305   0.75000 
H          H       0.21695   0.53841   0.75000 
H          H       0.53841   0.32146   0.75000 
H          H       0.67854   0.21695   0.75000 
H          H       0.78305   0.46159   0.75000 
H          H       0.59685   0.54320   0.75000 
H          H       0.45680   0.05365   0.75000 
H          H       0.94635   0.40315   0.75000 
H          H       0.40315   0.45680   0.75000 
H          H       0.54320   0.94635   0.75000 
H          H       0.05365   0.59685   0.75000 
H          H       0.40625   0.53260   0.75000 
H          H       0.46740   0.87365   0.75000 
H          H       0.12635   0.59375   0.75000 
H          H       0.59375   0.46740   0.75000 
H          H       0.53260   0.12635   0.75000 
H          H       0.87365   0.40625   0.75000 
H          H       0.57316   0.62503   0.59683 
H          H       0.37497   0.94813   0.59683 
H          H       0.05187   0.42684   0.59683 
H          H       0.42684   0.37497   0.59683 
H          H       0.62503   0.05187   0.59683 
H          H       0.94813   0.57316   0.59683 
H          H       0.60263   0.62014   0.82341 
H          H       0.37986   0.98249   0.82341 
H          H       0.01751   0.39737   0.82341 
H          H       0.39737   0.37986   0.82341 
H          H       0.62014   0.01751   0.82341 
H          H       0.98249   0.60263   0.82341 
H          H       0.54603   0.62954   0.82976 
H          H       0.37046   0.91649   0.82976 
H          H       0.08351   0.45397   0.82976 
H          H       0.45397   0.37046   0.82976 
H          H       0.62954   0.08351   0.82976 
H          H       0.91649   0.54603   0.82976 
