data_crystal

_cell_length_a    36.06300
_cell_length_b    36.06300
_cell_length_c    10.76000
_cell_angle_alpha 90.00000
_cell_angle_beta  90.00000
_cell_angle_gamma 120.00000

_space_group_name_Hall 'P 1'
_space_group_name_H-M_alt  'P 1'

loop_
_symmetry_equiv_pos_as_xyz
'x,y,z' 

loop_
_atom_site_label
_atom_site_type_symbol
_atom_site_fract_x
_atom_site_fract_y
_atom_site_fract_z
C          C       0.33894   0.23589   0.44949 
C          C       0.76411   0.10305   0.44949 
C          C       0.89695   0.66106   0.44949 
C          C       0.31802   0.19564   0.38642 
C          C       0.80436   0.12238   0.38642 
C          C       0.87762   0.68198   0.38642 
C          C       0.34081   0.18843   0.29127 
C          C       0.81157   0.15238   0.29127 
C          C       0.84762   0.65919   0.29127 
C          C       0.38384   0.21986   0.27095 
C          C       0.78014   0.16398   0.27095 
C          C       0.83602   0.61616   0.27095 
C          C       0.40275   0.25883   0.33688 
C          C       0.74117   0.14392   0.33688 
C          C       0.85608   0.59725   0.33688 
C          C       0.38027   0.26806   0.42384 
C          C       0.73194   0.11221   0.42384 
C          C       0.88779   0.61973   0.42384 
C          C       0.27627   0.16239   0.40926 
C          C       0.83761   0.11388   0.40926 
C          C       0.88612   0.72373   0.40926 
C          C       0.25860   0.12737   0.33477 
C          C       0.87263   0.13123   0.33477 
C          C       0.86877   0.74140   0.33477 
C          C       0.27889   0.11972   0.23847 
C          C       0.88028   0.15917   0.23847 
C          C       0.84083   0.72111   0.23847 
C          C       0.32184   0.15124   0.21776 
C          C       0.84876   0.17060   0.21776 
C          C       0.82940   0.67816   0.21776 
C          C       0.34521   0.14308   0.12672 
C          C       0.85692   0.20213   0.12672 
C          C       0.79787   0.65479   0.12672 
C          C       0.38721   0.17593   0.10508 
C          C       0.82407   0.21128   0.10508 
C          C       0.78872   0.61279   0.10508 
C          C       0.40472   0.21129   0.17839 
C          C       0.78871   0.19343   0.17839 
C          C       0.80657   0.59528   0.17839 
C          C       0.26006   0.08039   0.17458 
C          C       0.91961   0.17967   0.17458 
C          C       0.82033   0.73994   0.17458 
C          C       0.28359   0.06977   0.09576 
C          C       0.93023   0.21382   0.09576 
C          C       0.78618   0.71641   0.09576 
C          C       0.32490   0.10182   0.06935 
C          C       0.89818   0.22308   0.06935 
C          C       0.77692   0.67510   0.06935 
C          C       0.40053   0.31272   0.48331 
C          C       0.68728   0.08781   0.48331 
C          C       0.91219   0.59947   0.48331 
C          C       0.37140   0.31541   0.08332 
C          C       0.68459   0.05599   0.08332 
C          C       0.94401   0.62860   0.08332 
C          C       0.44399   0.32489   0.04229 
C          C       0.67511   0.11910   0.04229 
C          C       0.88090   0.55601   0.04229 
C          C       0.40731   0.34541   0.38146 
C          C       0.65459   0.06190   0.38146 
C          C       0.93810   0.59269   0.38146 
C          C       0.26614   0.02470   0.04171 
C          C       0.97530   0.24144   0.04171 
C          C       0.75856   0.73386   0.04171 
C          C       0.29582   0.00750   0.08077 
C          C       0.99250   0.28832   0.08077 
C          C       0.71168   0.70418   0.08077 
C          C       0.22006   0.99328   0.08505 
C          C       0.00672   0.22678   0.08505 
C          C       0.77322   0.77994   0.08505 
C          C       0.26451   0.02684   0.40006 
C          C       0.97316   0.23767   0.40006 
C          C       0.76233   0.73549   0.40006 
N          N       0.24509   0.15568   0.49264 
N          N       0.84432   0.08941   0.49264 
N          N       0.91059   0.75491   0.49264 
C          C       0.21082   0.11750   0.46980 
C          C       0.88250   0.09332   0.46980 
C          C       0.90668   0.78918   0.46980 
N          N       0.21740   0.09856   0.37074 
N          N       0.90144   0.11884   0.37074 
N          N       0.88116   0.78260   0.37074 
N          N       0.41905   0.18151   0.02576 
N          N       0.81849   0.23754   0.02576 
N          N       0.76246   0.58095   0.02576 
C          C       0.45373   0.21924   0.05013 
C          C       0.78076   0.23449   0.05013 
C          C       0.76551   0.54627   0.05013 
N          N       0.44668   0.23892   0.14644 
N          N       0.76108   0.20776   0.14644 
N          N       0.79224   0.55332   0.14644 
C          C       0.49414   0.24081   0.49344 
C          C       0.75919   0.25333   0.49344 
C          C       0.74667   0.50586   0.49344 
C          C       0.17110   0.09495   0.02995 
C          C       0.90505   0.07615   0.02995 
C          C       0.92385   0.82890   0.02995 
C          C       0.15884   0.11046   0.13748 
C          C       0.88954   0.04838   0.13748 
C          C       0.95162   0.84116   0.13748 
C          C       0.11940   0.08697   0.19042 
C          C       0.91303   0.03243   0.19042 
C          C       0.96757   0.88060   0.19042 
C          C       0.08869   0.04581   0.14269 
C          C       0.95419   0.04288   0.14269 
C          C       0.95712   0.91131   0.14269 
C          C       0.10116   0.03011   0.03707 
C          C       0.96989   0.07105   0.03707 
C          C       0.92895   0.89884   0.03707 
C          C       0.14035   0.05387   0.48286 
C          C       0.94613   0.08648   0.48286 
C          C       0.91352   0.85965   0.48286 
C          C       0.50664   0.22487   0.38738 
C          C       0.77513   0.28177   0.38738 
C          C       0.71823   0.49336   0.38738 
C          C       0.54657   0.24758   0.33685 
C          C       0.75242   0.29899   0.33685 
C          C       0.70101   0.45343   0.33685 
C          C       0.57776   0.28833   0.38608 
C          C       0.71167   0.28943   0.38608 
C          C       0.71057   0.42224   0.38608 
C          C       0.56520   0.30427   0.49101 
C          C       0.69573   0.26093   0.49101 
C          C       0.73907   0.43480   0.49101 
C          C       0.52545   0.28132   0.04254 
C          C       0.71868   0.24413   0.04254 
C          C       0.75587   0.47455   0.04254 
H          H       0.32056   0.24124   0.02149 
H          H       0.75876   0.07932   0.02149 
H          H       0.92068   0.67944   0.02149 
H          H       0.43609   0.28298   0.31597 
H          H       0.71702   0.15311   0.31597 
H          H       0.84689   0.56391   0.31597 
H          H       0.22659   0.05672   0.19574 
H          H       0.94328   0.16987   0.19574 
H          H       0.83013   0.77341   0.19574 
H          H       0.34353   0.09476   0.00234 
H          H       0.90524   0.24877   0.00234 
H          H       0.75123   0.65647   0.00234 
H          H       0.36487   0.29275   0.16006 
H          H       0.70725   0.07212   0.16006 
H          H       0.92788   0.63513   0.16006 
H          H       0.34050   0.30915   0.04463 
H          H       0.69085   0.03135   0.04463 
H          H       0.96865   0.65950   0.04463 
H          H       0.38687   0.34786   0.12348 
H          H       0.65214   0.03901   0.12348 
H          H       0.96099   0.61313   0.12348 
H          H       0.46697   0.32498   0.47470 
H          H       0.67502   0.14199   0.47470 
H          H       0.85801   0.53303   0.47470 
H          H       0.44056   0.30285   0.11760 
H          H       0.69715   0.13771   0.11760 
H          H       0.86229   0.55944   0.11760 
H          H       0.45878   0.35728   0.08274 
H          H       0.64272   0.10150   0.08274 
H          H       0.89850   0.54122   0.08274 
H          H       0.37673   0.33846   0.33881 
H          H       0.66154   0.03827   0.33881 
H          H       0.96173   0.62327   0.33881 
H          H       0.42864   0.34615   0.30706 
H          H       0.65385   0.08249   0.30706 
H          H       0.91751   0.57136   0.30706 
H          H       0.42207   0.37794   0.42094 
H          H       0.62206   0.04413   0.42094 
H          H       0.95587   0.57793   0.42094 
H          H       0.32848   0.02712   0.04376 
H          H       0.97288   0.30136   0.04376 
H          H       0.69864   0.67152   0.04376 
H          H       0.28350   0.97471   0.04539 
H          H       0.02529   0.30879   0.04539 
H          H       0.69121   0.71650   0.04539 
H          H       0.29824   0.00635   0.18255 
H          H       0.99365   0.29189   0.18255 
H          H       0.70811   0.70176   0.18255 
H          H       0.20867   0.96143   0.04349 
H          H       0.03857   0.24724   0.04349 
H          H       0.75276   0.79133   0.04349 
H          H       0.19763   0.00400   0.05564 
H          H       0.99600   0.19363   0.05564 
H          H       0.80637   0.80237   0.05564 
H          H       0.21742   0.98895   0.18646 
H          H       0.01105   0.22847   0.18646 
H          H       0.77153   0.78258   0.18646 
H          H       0.29550   0.04960   0.35798 
H          H       0.95040   0.24590   0.35798 
H          H       0.75410   0.70450   0.35798 
H          H       0.24091   0.03618   0.37297 
H          H       0.96382   0.20473   0.37297 
H          H       0.79527   0.75909   0.37297 
H          H       0.25418   0.99511   0.35935 
H          H       0.00489   0.25907   0.35935 
H          H       0.74093   0.74582   0.35935 
H          H       0.24854   0.17308   0.06786 
H          H       0.82692   0.07546   0.06786 
H          H       0.92454   0.75146   0.06786 
H          H       0.41587   0.16373   0.45169 
H          H       0.83627   0.25214   0.45169 
H          H       0.74786   0.58413   0.45169 
H          H       0.18160   0.14167   0.17807 
H          H       0.85833   0.03993   0.17807 
H          H       0.96007   0.81840   0.17807 
C          C       0.04573   0.02343   0.18912 
C          C       0.97657   0.02230   0.18912 
C          C       0.97770   0.95427   0.18912 
H          H       0.14809   0.04084   0.40058 
H          H       0.95916   0.10725   0.40058 
H          H       0.89275   0.85191   0.40058 
H          H       0.48348   0.19407   0.34540 
H          H       0.80593   0.28941   0.34540 
H          H       0.71059   0.51652   0.34540 
C          C       0.62090   0.31032   0.34091 
C          C       0.68968   0.31058   0.34091 
C          C       0.68942   0.37910   0.34091 
H          H       0.51764   0.29458   0.12418 
H          H       0.70542   0.22306   0.12418 
H          H       0.77694   0.48236   0.12418 
H          H       0.11068   0.09982   0.27107 
H          H       0.90018   0.01086   0.27107 
H          H       0.98914   0.88932   0.27107 
H          H       0.07782   0.99929   0.49518 
H          H       0.00071   0.07853   0.49518 
H          H       0.92147   0.92218   0.49518 
H          H       0.58879   0.33475   0.03406 
H          H       0.66525   0.25404   0.03406 
H          H       0.74596   0.41121   0.03406 
H          H       0.55521   0.23451   0.25655 
H          H       0.76549   0.32070   0.25655 
H          H       0.67930   0.44479   0.25655 
C          C       0.02164   0.04463   0.19757 
C          C       0.95537   0.97701   0.19757 
C          C       0.02299   0.97836   0.19757 
C          C       0.64458   0.28869   0.33259 
C          C       0.71131   0.35589   0.33259 
C          C       0.64411   0.35542   0.33259 
H          H       0.03852   0.07948   0.18205 
H          H       0.92052   0.95904   0.18205 
H          H       0.04096   0.96148   0.18205 
H          H       0.62734   0.25381   0.34757 
H          H       0.74619   0.37353   0.34757 
H          H       0.62647   0.37266   0.34757 
C          C       0.33894   0.23589   0.94949 
C          C       0.76411   0.10305   0.94949 
C          C       0.89695   0.66106   0.94949 
C          C       0.31802   0.19564   0.88641 
C          C       0.80436   0.12238   0.88641 
C          C       0.87762   0.68198   0.88641 
C          C       0.34081   0.18843   0.79127 
C          C       0.81157   0.15238   0.79127 
C          C       0.84762   0.65919   0.79127 
C          C       0.38384   0.21986   0.77095 
C          C       0.78014   0.16398   0.77095 
C          C       0.83602   0.61616   0.77095 
C          C       0.40275   0.25883   0.83689 
C          C       0.74117   0.14392   0.83689 
C          C       0.85608   0.59725   0.83689 
C          C       0.38027   0.26806   0.92384 
C          C       0.73194   0.11221   0.92384 
C          C       0.88779   0.61973   0.92384 
C          C       0.27627   0.16239   0.90926 
C          C       0.83761   0.11388   0.90926 
C          C       0.88612   0.72373   0.90926 
C          C       0.25860   0.12737   0.83476 
C          C       0.87263   0.13123   0.83476 
C          C       0.86877   0.74140   0.83476 
C          C       0.27889   0.11972   0.73847 
C          C       0.88028   0.15917   0.73847 
C          C       0.84083   0.72111   0.73847 
C          C       0.32184   0.15124   0.71776 
C          C       0.84876   0.17060   0.71776 
C          C       0.82940   0.67816   0.71776 
C          C       0.34521   0.14308   0.62672 
C          C       0.85692   0.20213   0.62672 
C          C       0.79787   0.65479   0.62672 
C          C       0.38721   0.17593   0.60509 
C          C       0.82407   0.21128   0.60509 
C          C       0.78872   0.61279   0.60509 
C          C       0.40472   0.21129   0.67839 
C          C       0.78871   0.19343   0.67839 
C          C       0.80657   0.59528   0.67839 
C          C       0.26006   0.08039   0.67459 
C          C       0.91961   0.17967   0.67459 
C          C       0.82033   0.73994   0.67459 
C          C       0.28359   0.06977   0.59576 
C          C       0.93023   0.21382   0.59576 
C          C       0.78618   0.71641   0.59576 
C          C       0.32490   0.10182   0.56935 
C          C       0.89818   0.22308   0.56935 
C          C       0.77692   0.67510   0.56935 
C          C       0.40053   0.31272   0.98331 
C          C       0.68728   0.08781   0.98331 
C          C       0.91219   0.59947   0.98331 
C          C       0.37140   0.31541   0.58332 
C          C       0.68459   0.05599   0.58332 
C          C       0.94401   0.62860   0.58332 
C          C       0.44399   0.32489   0.54229 
C          C       0.67511   0.11910   0.54229 
C          C       0.88090   0.55601   0.54229 
C          C       0.40731   0.34541   0.88146 
C          C       0.65459   0.06190   0.88146 
C          C       0.93810   0.59269   0.88146 
C          C       0.26614   0.02470   0.54171 
C          C       0.97530   0.24144   0.54171 
C          C       0.75856   0.73386   0.54171 
C          C       0.29582   0.00750   0.58076 
C          C       0.99250   0.28832   0.58076 
C          C       0.71168   0.70418   0.58076 
C          C       0.22006   0.99328   0.58505 
C          C       0.00672   0.22678   0.58505 
C          C       0.77322   0.77994   0.58505 
C          C       0.26451   0.02684   0.90006 
C          C       0.97316   0.23767   0.90006 
C          C       0.76233   0.73549   0.90006 
N          N       0.24509   0.15568   0.99264 
N          N       0.84432   0.08941   0.99264 
N          N       0.91059   0.75491   0.99264 
C          C       0.21082   0.11750   0.96980 
C          C       0.88250   0.09332   0.96980 
C          C       0.90668   0.78918   0.96980 
N          N       0.21740   0.09856   0.87074 
N          N       0.90144   0.11884   0.87074 
N          N       0.88116   0.78260   0.87074 
N          N       0.41905   0.18151   0.52576 
N          N       0.81849   0.23754   0.52576 
N          N       0.76246   0.58095   0.52576 
C          C       0.45373   0.21924   0.55013 
C          C       0.78076   0.23449   0.55013 
C          C       0.76551   0.54627   0.55013 
N          N       0.44668   0.23892   0.64643 
N          N       0.76108   0.20776   0.64643 
N          N       0.79224   0.55332   0.64643 
C          C       0.49414   0.24081   0.99344 
C          C       0.75919   0.25333   0.99344 
C          C       0.74667   0.50586   0.99344 
C          C       0.17110   0.09495   0.52995 
C          C       0.90505   0.07615   0.52995 
C          C       0.92385   0.82890   0.52995 
C          C       0.15884   0.11046   0.63748 
C          C       0.88954   0.04838   0.63748 
C          C       0.95162   0.84116   0.63748 
C          C       0.11940   0.08697   0.69042 
C          C       0.91303   0.03243   0.69042 
C          C       0.96757   0.88060   0.69042 
C          C       0.08869   0.04581   0.64269 
C          C       0.95419   0.04288   0.64269 
C          C       0.95712   0.91131   0.64269 
C          C       0.10116   0.03011   0.53707 
C          C       0.96989   0.07105   0.53707 
C          C       0.92895   0.89884   0.53707 
C          C       0.14035   0.05387   0.98286 
C          C       0.94613   0.08648   0.98286 
C          C       0.91352   0.85965   0.98286 
C          C       0.50664   0.22487   0.88738 
C          C       0.77513   0.28177   0.88738 
C          C       0.71823   0.49336   0.88738 
C          C       0.54657   0.24758   0.83685 
C          C       0.75242   0.29899   0.83685 
C          C       0.70101   0.45343   0.83685 
C          C       0.57776   0.28833   0.88608 
C          C       0.71167   0.28943   0.88608 
C          C       0.71057   0.42224   0.88608 
C          C       0.56520   0.30427   0.99101 
C          C       0.69573   0.26093   0.99101 
C          C       0.73907   0.43480   0.99101 
C          C       0.52545   0.28132   0.54255 
C          C       0.71868   0.24413   0.54255 
C          C       0.75587   0.47455   0.54255 
H          H       0.32056   0.24124   0.52149 
H          H       0.75876   0.07932   0.52149 
H          H       0.92068   0.67944   0.52149 
H          H       0.43609   0.28298   0.81597 
H          H       0.71702   0.15311   0.81597 
H          H       0.84689   0.56391   0.81597 
H          H       0.22659   0.05672   0.69574 
H          H       0.94328   0.16987   0.69574 
H          H       0.83013   0.77341   0.69574 
H          H       0.34353   0.09476   0.50234 
H          H       0.90524   0.24877   0.50234 
H          H       0.75123   0.65647   0.50234 
H          H       0.36487   0.29275   0.66006 
H          H       0.70725   0.07212   0.66006 
H          H       0.92788   0.63513   0.66006 
H          H       0.34050   0.30915   0.54464 
H          H       0.69085   0.03135   0.54464 
H          H       0.96865   0.65950   0.54464 
H          H       0.38687   0.34786   0.62348 
H          H       0.65214   0.03901   0.62348 
H          H       0.96099   0.61313   0.62348 
H          H       0.46697   0.32498   0.97470 
H          H       0.67502   0.14199   0.97470 
H          H       0.85801   0.53303   0.97470 
H          H       0.44056   0.30285   0.61761 
H          H       0.69715   0.13771   0.61761 
H          H       0.86229   0.55944   0.61761 
H          H       0.45878   0.35728   0.58274 
H          H       0.64272   0.10150   0.58274 
H          H       0.89850   0.54122   0.58274 
H          H       0.37673   0.33846   0.83881 
H          H       0.66154   0.03827   0.83881 
H          H       0.96173   0.62327   0.83881 
H          H       0.42864   0.34615   0.80706 
H          H       0.65385   0.08249   0.80706 
H          H       0.91751   0.57136   0.80706 
H          H       0.42207   0.37794   0.92094 
H          H       0.62206   0.04413   0.92094 
H          H       0.95587   0.57793   0.92094 
H          H       0.32848   0.02712   0.54375 
H          H       0.97288   0.30136   0.54375 
H          H       0.69864   0.67152   0.54375 
H          H       0.28350   0.97471   0.54540 
H          H       0.02529   0.30879   0.54540 
H          H       0.69121   0.71650   0.54540 
H          H       0.29824   0.00635   0.68255 
H          H       0.99365   0.29189   0.68255 
H          H       0.70811   0.70176   0.68255 
H          H       0.20867   0.96143   0.54348 
H          H       0.03857   0.24724   0.54348 
H          H       0.75276   0.79133   0.54348 
H          H       0.19763   0.00400   0.55564 
H          H       0.99600   0.19363   0.55564 
H          H       0.80637   0.80237   0.55564 
H          H       0.21742   0.98895   0.68646 
H          H       0.01105   0.22847   0.68646 
H          H       0.77153   0.78258   0.68646 
H          H       0.29550   0.04960   0.85798 
H          H       0.95040   0.24590   0.85798 
H          H       0.75410   0.70450   0.85798 
H          H       0.24091   0.03618   0.87297 
H          H       0.96382   0.20473   0.87297 
H          H       0.79527   0.75909   0.87297 
H          H       0.25418   0.99511   0.85935 
H          H       0.00489   0.25907   0.85935 
H          H       0.74093   0.74582   0.85935 
H          H       0.24854   0.17308   0.56786 
H          H       0.82692   0.07546   0.56786 
H          H       0.92454   0.75146   0.56786 
H          H       0.41587   0.16373   0.95169 
H          H       0.83627   0.25214   0.95169 
H          H       0.74786   0.58413   0.95169 
H          H       0.18160   0.14167   0.67807 
H          H       0.85833   0.03993   0.67807 
H          H       0.96007   0.81840   0.67807 
C          C       0.04573   0.02343   0.68912 
C          C       0.97657   0.02230   0.68912 
C          C       0.97770   0.95427   0.68912 
H          H       0.14809   0.04084   0.90058 
H          H       0.95916   0.10725   0.90058 
H          H       0.89275   0.85191   0.90058 
H          H       0.48348   0.19407   0.84540 
H          H       0.80593   0.28941   0.84540 
H          H       0.71059   0.51652   0.84540 
C          C       0.62090   0.31032   0.84091 
C          C       0.68968   0.31058   0.84091 
C          C       0.68942   0.37910   0.84091 
H          H       0.51764   0.29458   0.62418 
H          H       0.70542   0.22306   0.62418 
H          H       0.77694   0.48236   0.62418 
H          H       0.11068   0.09982   0.77107 
H          H       0.90018   0.01086   0.77107 
H          H       0.98914   0.88932   0.77107 
H          H       0.07782   0.99929   0.99518 
H          H       0.00071   0.07853   0.99518 
H          H       0.92147   0.92218   0.99518 
H          H       0.58879   0.33475   0.53406 
H          H       0.66525   0.25404   0.53406 
H          H       0.74596   0.41121   0.53406 
H          H       0.55521   0.23451   0.75655 
H          H       0.76549   0.32070   0.75655 
H          H       0.67930   0.44479   0.75655 
C          C       0.02164   0.04463   0.69758 
C          C       0.95537   0.97701   0.69758 
C          C       0.02299   0.97836   0.69758 
C          C       0.64458   0.28869   0.83259 
C          C       0.71131   0.35589   0.83259 
C          C       0.64411   0.35542   0.83259 
H          H       0.03852   0.07948   0.68206 
H          H       0.92052   0.95904   0.68206 
H          H       0.04096   0.96148   0.68206 
H          H       0.62734   0.25381   0.84757 
H          H       0.74619   0.37353   0.84757 
H          H       0.62647   0.37266   0.84757 
