data_crystal

_cell_length_a    27.74500
_cell_length_b    27.74500
_cell_length_c    7.40000
_cell_angle_alpha 90.00000
_cell_angle_beta  90.00000
_cell_angle_gamma 120.00000

_space_group_name_Hall 'P 1'
_space_group_name_H-M_alt  'P 1'

loop_
_symmetry_equiv_pos_as_xyz
'x,y,z' 

loop_
_atom_site_label
_atom_site_type_symbol
_atom_site_fract_x
_atom_site_fract_y
_atom_site_fract_z
C          C       0.28274   0.24258   0.20257 
C          C       0.75742   0.04016   0.20257 
C          C       0.95984   0.71726   0.20257 
C          C       0.28024   0.19112   0.18760 
C          C       0.80888   0.08912   0.18760 
C          C       0.91088   0.71976   0.18760 
C          C       0.33342   0.19217   0.18476 
C          C       0.80783   0.14125   0.18476 
C          C       0.85875   0.66658   0.18476 
C          C       0.38678   0.24403   0.19132 
C          C       0.75597   0.14275   0.19132 
C          C       0.85725   0.61322   0.19132 
C          C       0.38467   0.29300   0.21219 
C          C       0.70700   0.09167   0.21219 
C          C       0.90833   0.61533   0.21219 
C          C       0.33378   0.29594   0.21880 
C          C       0.70406   0.03784   0.21880 
C          C       0.96216   0.66622   0.21880 
C          C       0.22638   0.13796   0.18523 
C          C       0.86204   0.08842   0.18523 
C          C       0.91158   0.77362   0.18523 
C          C       0.22621   0.08878   0.18766 
C          C       0.91122   0.13743   0.18766 
C          C       0.86257   0.77379   0.18766 
C          C       0.27989   0.08930   0.19132 
C          C       0.91070   0.19059   0.19132 
C          C       0.80941   0.72011   0.19132 
C          C       0.33324   0.14117   0.18476 
C          C       0.85883   0.19207   0.18476 
C          C       0.80793   0.66676   0.18476 
C          C       0.38643   0.14222   0.18760 
C          C       0.85778   0.24421   0.18760 
C          C       0.75579   0.61357   0.18760 
C          C       0.44029   0.19537   0.18523 
C          C       0.80463   0.24492   0.18523 
C          C       0.75508   0.55971   0.18523 
C          C       0.44046   0.24455   0.18766 
C          C       0.75545   0.19591   0.18766 
C          C       0.80409   0.55954   0.18766 
C          C       0.28199   0.04034   0.21219 
C          C       0.95966   0.24165   0.21219 
C          C       0.75835   0.71801   0.21219 
C          C       0.33289   0.03739   0.21880 
C          C       0.96261   0.29550   0.21880 
C          C       0.70450   0.66711   0.21880 
C          C       0.38392   0.09075   0.20257 
C          C       0.90925   0.29317   0.20257 
C          C       0.70683   0.61608   0.20257 
C          C       0.33331   0.35078   0.29900 
C          C       0.64922   0.98253   0.29900 
C          C       0.01747   0.66669   0.29900 
C          C       0.27333   0.32533   0.38660 
C          C       0.67467   0.94800   0.38660 
C          C       0.05200   0.72667   0.38660 
C          C       0.39024   0.38273   0.40349 
C          C       0.61727   0.00751   0.40349 
C          C       0.99249   0.60976   0.40349 
C          C       0.33702   0.40515   0.20887 
C          C       0.59485   0.93187   0.20887 
C          C       0.06813   0.66298   0.20887 
C          C       0.33335   0.98255   0.29900 
C          C       0.01745   0.35080   0.29900 
C          C       0.64920   0.66665   0.29900 
C          C       0.39333   0.00801   0.38660 
C          C       0.99199   0.38532   0.38660 
C          C       0.61468   0.60667   0.38660 
C          C       0.27643   0.95060   0.40349 
C          C       0.04940   0.32583   0.40349 
C          C       0.67417   0.72357   0.40349 
C          C       0.32964   0.92818   0.20887 
C          C       0.07182   0.40146   0.20887 
C          C       0.59854   0.67036   0.20887 
N          N       0.17057   0.12545   0.18630 
N          N       0.87455   0.04512   0.18630 
N          N       0.95488   0.82943   0.18630 
C          C       0.13509   0.06763   0.18840 
C          C       0.93237   0.06746   0.18840 
C          C       0.93254   0.86491   0.18840 
N          N       0.17045   0.04505   0.19021 
N          N       0.95495   0.12540   0.19021 
N          N       0.87460   0.82955   0.19021 
N          N       0.49610   0.20788   0.18630 
N          N       0.79212   0.28822   0.18630 
N          N       0.71178   0.50390   0.18630 
C          C       0.53157   0.26570   0.18840 
C          C       0.73430   0.26587   0.18840 
C          C       0.73413   0.46843   0.18840 
N          N       0.49622   0.28828   0.19021 
N          N       0.71172   0.20794   0.19021 
N          N       0.79206   0.50378   0.19021 
C          C       0.60243   0.30112   0.18874 
C          C       0.69888   0.30131   0.18874 
C          C       0.69869   0.39757   0.18874 
C          C       0.06424   0.03221   0.18874 
C          C       0.96779   0.03203   0.18874 
C          C       0.96797   0.93576   0.18874 
C          C       0.02981   0.05982   0.18874 
C          C       0.94018   0.96999   0.18874 
C          C       0.03001   0.97019   0.18874 
C          C       0.63685   0.27352   0.18874 
C          C       0.72648   0.36333   0.18874 
C          C       0.63667   0.36315   0.18874 
H          H       0.24231   0.23871   0.20954 
H          H       0.76129   0.00360   0.20954 
H          H       0.99640   0.75769   0.20954 
H          H       0.42523   0.32931   0.22538 
H          H       0.67069   0.09592   0.22538 
H          H       0.90408   0.57477   0.22538 
H          H       0.24143   0.00403   0.22538 
H          H       0.99597   0.23740   0.22538 
H          H       0.76260   0.75857   0.22538 
H          H       0.42436   0.09463   0.20954 
H          H       0.90537   0.32973   0.20954 
H          H       0.67027   0.57564   0.20954 
H          H       0.26136   0.28883   0.46843 
H          H       0.71117   0.97253   0.46843 
H          H       0.02747   0.73864   0.46843 
H          H       0.24303   0.31188   0.27375 
H          H       0.68812   0.93115   0.27375 
H          H       0.06885   0.75697   0.27375 
H          H       0.25782   0.35028   0.45437 
H          H       0.64972   0.90754   0.45437 
H          H       0.09246   0.74218   0.45437 
H          H       0.42418   0.40044   0.30166 
H          H       0.59956   0.02374   0.30166 
H          H       0.97626   0.57582   0.30166 
H          H       0.40110   0.35794   0.48531 
H          H       0.64206   0.04316   0.48531 
H          H       0.95684   0.59890   0.48531 
H          H       0.40237   0.42254   0.46921 
H          H       0.57746   0.97983   0.46921 
H          H       0.02017   0.59763   0.46921 
H          H       0.32486   0.40572   0.07428 
H          H       0.59428   0.91914   0.07428 
H          H       0.08086   0.67514   0.07428 
H          H       0.37848   0.44389   0.21166 
H          H       0.55611   0.93459   0.21166 
H          H       0.06541   0.62152   0.21166 
H          H       0.42363   0.02145   0.27375 
H          H       0.97855   0.40218   0.27375 
H          H       0.59782   0.57637   0.27375 
H          H       0.40885   0.98305   0.45437 
H          H       0.01695   0.42580   0.45437 
H          H       0.57420   0.59115   0.45437 
H          H       0.40530   0.04450   0.46843 
H          H       0.95550   0.36080   0.46843 
H          H       0.63920   0.59470   0.46843 
H          H       0.26430   0.91080   0.46921 
H          H       0.08920   0.35350   0.46921 
H          H       0.64650   0.73570   0.46921 
H          H       0.24248   0.93289   0.30166 
H          H       0.06711   0.30959   0.30166 
H          H       0.69041   0.75752   0.30166 
H          H       0.26556   0.97539   0.48530 
H          H       0.02461   0.29017   0.48530 
H          H       0.70983   0.73444   0.48530 
H          H       0.34180   0.92761   0.07428 
H          H       0.07239   0.41419   0.07428 
H          H       0.58581   0.65820   0.07428 
H          H       0.28818   0.88945   0.21167 
H          H       0.11055   0.39873   0.21167 
H          H       0.60127   0.71182   0.21167 
H          H       0.15733   0.15463   0.18553 
H          H       0.84537   0.00270   0.18553 
H          H       0.99730   0.84267   0.18553 
H          H       0.50934   0.17870   0.18553 
H          H       0.82130   0.33064   0.18553 
H          H       0.66936   0.49066   0.18553 
H          H       0.05216   0.10481   0.18865 
H          H       0.89519   0.94735   0.18865 
H          H       0.05265   0.94784   0.18865 
H          H       0.61450   0.22852   0.18865 
H          H       0.77148   0.38598   0.18865 
H          H       0.61402   0.38550   0.18865 
H          H       0.31270   0.42062   0.28355 
H          H       0.57938   0.89208   0.28355 
H          H       0.10792   0.68730   0.28355 
H          H       0.55876   0.64604   0.28355 
H          H       0.35396   0.91272   0.28355 
H          H       0.08728   0.44124   0.28355 
C          C       0.28274   0.24258   0.70257 
C          C       0.75742   0.04016   0.70257 
C          C       0.95984   0.71726   0.70257 
C          C       0.28024   0.19112   0.68760 
C          C       0.80888   0.08912   0.68760 
C          C       0.91088   0.71976   0.68760 
C          C       0.33342   0.19217   0.68476 
C          C       0.80783   0.14125   0.68476 
C          C       0.85875   0.66658   0.68476 
C          C       0.38678   0.24403   0.69132 
C          C       0.75597   0.14275   0.69132 
C          C       0.85725   0.61322   0.69132 
C          C       0.38467   0.29300   0.71219 
C          C       0.70700   0.09167   0.71219 
C          C       0.90833   0.61533   0.71219 
C          C       0.33378   0.29594   0.71880 
C          C       0.70406   0.03784   0.71880 
C          C       0.96216   0.66622   0.71880 
C          C       0.22638   0.13796   0.68523 
C          C       0.86204   0.08842   0.68523 
C          C       0.91158   0.77362   0.68523 
C          C       0.22621   0.08878   0.68766 
C          C       0.91122   0.13743   0.68766 
C          C       0.86257   0.77379   0.68766 
C          C       0.27989   0.08930   0.69132 
C          C       0.91070   0.19059   0.69132 
C          C       0.80941   0.72011   0.69132 
C          C       0.33324   0.14117   0.68476 
C          C       0.85883   0.19207   0.68476 
C          C       0.80793   0.66676   0.68476 
C          C       0.38643   0.14222   0.68760 
C          C       0.85778   0.24421   0.68760 
C          C       0.75579   0.61357   0.68760 
C          C       0.44029   0.19537   0.68523 
C          C       0.80463   0.24492   0.68523 
C          C       0.75508   0.55971   0.68523 
C          C       0.44046   0.24455   0.68766 
C          C       0.75545   0.19591   0.68766 
C          C       0.80409   0.55954   0.68766 
C          C       0.28199   0.04034   0.71219 
C          C       0.95966   0.24165   0.71219 
C          C       0.75835   0.71801   0.71219 
C          C       0.33289   0.03739   0.71880 
C          C       0.96261   0.29550   0.71880 
C          C       0.70450   0.66711   0.71880 
C          C       0.38392   0.09075   0.70257 
C          C       0.90925   0.29317   0.70257 
C          C       0.70683   0.61608   0.70257 
C          C       0.33331   0.35078   0.79900 
C          C       0.64922   0.98253   0.79900 
C          C       0.01747   0.66669   0.79900 
C          C       0.27333   0.32533   0.88660 
C          C       0.67467   0.94800   0.88660 
C          C       0.05200   0.72667   0.88660 
C          C       0.39024   0.38273   0.90349 
C          C       0.61727   0.00751   0.90349 
C          C       0.99249   0.60976   0.90349 
C          C       0.33702   0.40515   0.70887 
C          C       0.59485   0.93187   0.70887 
C          C       0.06813   0.66298   0.70887 
C          C       0.33335   0.98255   0.79900 
C          C       0.01745   0.35080   0.79900 
C          C       0.64920   0.66665   0.79900 
C          C       0.39333   0.00801   0.88660 
C          C       0.99199   0.38532   0.88660 
C          C       0.61468   0.60667   0.88660 
C          C       0.27643   0.95060   0.90349 
C          C       0.04940   0.32583   0.90349 
C          C       0.67417   0.72357   0.90349 
C          C       0.32964   0.92818   0.70887 
C          C       0.07182   0.40146   0.70887 
C          C       0.59854   0.67036   0.70887 
N          N       0.17057   0.12545   0.68630 
N          N       0.87455   0.04512   0.68630 
N          N       0.95488   0.82943   0.68630 
C          C       0.13509   0.06763   0.68840 
C          C       0.93237   0.06746   0.68840 
C          C       0.93254   0.86491   0.68840 
N          N       0.17045   0.04505   0.69021 
N          N       0.95495   0.12540   0.69021 
N          N       0.87460   0.82955   0.69021 
N          N       0.49610   0.20788   0.68630 
N          N       0.79212   0.28822   0.68630 
N          N       0.71178   0.50390   0.68630 
C          C       0.53157   0.26570   0.68840 
C          C       0.73430   0.26587   0.68840 
C          C       0.73413   0.46843   0.68840 
N          N       0.49622   0.28828   0.69021 
N          N       0.71172   0.20794   0.69021 
N          N       0.79206   0.50378   0.69021 
C          C       0.60243   0.30112   0.68874 
C          C       0.69888   0.30131   0.68874 
C          C       0.69869   0.39757   0.68874 
C          C       0.06424   0.03221   0.68874 
C          C       0.96779   0.03203   0.68874 
C          C       0.96797   0.93576   0.68874 
C          C       0.02981   0.05982   0.68874 
C          C       0.94018   0.96999   0.68874 
C          C       0.03001   0.97019   0.68874 
C          C       0.63685   0.27352   0.68874 
C          C       0.72648   0.36333   0.68874 
C          C       0.63667   0.36315   0.68874 
H          H       0.24231   0.23871   0.70954 
H          H       0.76129   0.00360   0.70954 
H          H       0.99640   0.75769   0.70954 
H          H       0.42523   0.32931   0.72538 
H          H       0.67069   0.09592   0.72538 
H          H       0.90408   0.57477   0.72538 
H          H       0.24143   0.00403   0.72538 
H          H       0.99597   0.23740   0.72538 
H          H       0.76260   0.75857   0.72538 
H          H       0.42436   0.09463   0.70954 
H          H       0.90537   0.32973   0.70954 
H          H       0.67027   0.57564   0.70954 
H          H       0.26136   0.28883   0.96843 
H          H       0.71117   0.97253   0.96843 
H          H       0.02747   0.73864   0.96843 
H          H       0.24303   0.31188   0.77375 
H          H       0.68812   0.93115   0.77375 
H          H       0.06885   0.75697   0.77375 
H          H       0.25782   0.35028   0.95437 
H          H       0.64972   0.90754   0.95437 
H          H       0.09246   0.74218   0.95437 
H          H       0.42418   0.40044   0.80166 
H          H       0.59956   0.02374   0.80166 
H          H       0.97626   0.57582   0.80166 
H          H       0.40110   0.35794   0.98531 
H          H       0.64206   0.04316   0.98531 
H          H       0.95684   0.59890   0.98531 
H          H       0.40237   0.42254   0.96921 
H          H       0.57746   0.97983   0.96921 
H          H       0.02017   0.59763   0.96921 
H          H       0.32486   0.40572   0.57428 
H          H       0.59428   0.91914   0.57428 
H          H       0.08086   0.67514   0.57428 
H          H       0.37848   0.44389   0.71166 
H          H       0.55611   0.93459   0.71166 
H          H       0.06541   0.62152   0.71166 
H          H       0.42363   0.02145   0.77375 
H          H       0.97855   0.40218   0.77375 
H          H       0.59782   0.57637   0.77375 
H          H       0.40885   0.98305   0.95437 
H          H       0.01695   0.42580   0.95437 
H          H       0.57420   0.59115   0.95437 
H          H       0.40530   0.04450   0.96843 
H          H       0.95550   0.36080   0.96843 
H          H       0.63920   0.59470   0.96843 
H          H       0.26430   0.91080   0.96921 
H          H       0.08920   0.35350   0.96921 
H          H       0.64650   0.73570   0.96921 
H          H       0.24248   0.93289   0.80166 
H          H       0.06711   0.30959   0.80166 
H          H       0.69041   0.75752   0.80166 
H          H       0.26556   0.97539   0.98530 
H          H       0.02461   0.29017   0.98530 
H          H       0.70983   0.73444   0.98530 
H          H       0.34180   0.92761   0.57428 
H          H       0.07239   0.41419   0.57428 
H          H       0.58581   0.65820   0.57428 
H          H       0.28818   0.88945   0.71167 
H          H       0.11055   0.39873   0.71167 
H          H       0.60127   0.71182   0.71167 
H          H       0.15733   0.15463   0.68553 
H          H       0.84537   0.00270   0.68553 
H          H       0.99730   0.84267   0.68553 
H          H       0.50934   0.17870   0.68553 
H          H       0.82130   0.33064   0.68553 
H          H       0.66936   0.49066   0.68553 
H          H       0.05216   0.10481   0.68865 
H          H       0.89519   0.94735   0.68865 
H          H       0.05265   0.94784   0.68865 
H          H       0.61450   0.22852   0.68865 
H          H       0.77148   0.38598   0.68865 
H          H       0.61402   0.38550   0.68865 
H          H       0.31270   0.42062   0.78354 
H          H       0.57938   0.89208   0.78354 
H          H       0.10792   0.68730   0.78354 
H          H       0.55876   0.64604   0.78354 
H          H       0.35396   0.91272   0.78354 
H          H       0.08728   0.44124   0.78354 
