data_crystal

_cell_length_a    30.46600
_cell_length_b    30.46600
_cell_length_c    11.13000
_cell_angle_alpha 90.00000
_cell_angle_beta  90.00000
_cell_angle_gamma 120.00000

_space_group_name_Hall 'P 1'
_space_group_name_H-M_alt  'P 1'

loop_
_symmetry_equiv_pos_as_xyz
'x,y,z' 

loop_
_atom_site_label
_atom_site_type_symbol
_atom_site_fract_x
_atom_site_fract_y
_atom_site_fract_z
C          C       0.35005   0.26490   0.40563 
C          C       0.73510   0.08515   0.40563 
C          C       0.91485   0.64995   0.40563 
C          C       0.32372   0.21249   0.37434 
C          C       0.78751   0.11123   0.37434 
C          C       0.88877   0.67628   0.37434 
C          C       0.34232   0.19682   0.27671 
C          C       0.80318   0.14550   0.27671 
C          C       0.85450   0.65768   0.27671 
C          C       0.38631   0.23354   0.21730 
C          C       0.76646   0.15277   0.21730 
C          C       0.84723   0.61369   0.21730 
C          C       0.41079   0.28484   0.25282 
C          C       0.71516   0.12595   0.25282 
C          C       0.87405   0.58921   0.25282 
C          C       0.39292   0.30133   0.34662 
C          C       0.69867   0.09159   0.34662 
C          C       0.90841   0.60708   0.34662 
C          C       0.28115   0.17448   0.43438 
C          C       0.82552   0.10667   0.43438 
C          C       0.89333   0.71885   0.43438 
C          C       0.25903   0.12590   0.39526 
C          C       0.87410   0.13313   0.39526 
C          C       0.86687   0.74097   0.39526 
C          C       0.27510   0.10909   0.29995 
C          C       0.89091   0.16601   0.29995 
C          C       0.83399   0.72490   0.29995 
C          C       0.31889   0.14590   0.24013 
C          C       0.85410   0.17299   0.24013 
C          C       0.82701   0.68111   0.24013 
C          C       0.33805   0.12981   0.14471 
C          C       0.87019   0.20824   0.14471 
C          C       0.79176   0.66195   0.14471 
C          C       0.38087   0.16756   0.08569 
C          C       0.83244   0.21331   0.08569 
C          C       0.78669   0.61913   0.08569 
C          C       0.40315   0.21628   0.12427 
C          C       0.78372   0.18687   0.12427 
C          C       0.81313   0.59685   0.12427 
C          C       0.25017   0.05782   0.26467 
C          C       0.94218   0.19235   0.26467 
C          C       0.80765   0.74983   0.26467 
C          C       0.26884   0.04093   0.17358 
C          C       0.95907   0.22791   0.17358 
C          C       0.77209   0.73116   0.17358 
C          C       0.31225   0.07707   0.11592 
C          C       0.92293   0.23518   0.11592 
C          C       0.76482   0.68775   0.11592 
C          C       0.42062   0.35741   0.38398 
C          C       0.64259   0.06321   0.38398 
C          C       0.93679   0.57938   0.38398 
C          C       0.39048   0.36861   0.47742 
C          C       0.63139   0.02187   0.47742 
C          C       0.97813   0.60952   0.47742 
C          C       0.47223   0.37052   0.43688 
C          C       0.62948   0.10171   0.43688 
C          C       0.89829   0.52777   0.43688 
C          C       0.42768   0.39123   0.27460 
C          C       0.60877   0.03645   0.27460 
C          C       0.96355   0.57232   0.27460 
C          C       0.24411   0.98497   0.13738 
C          C       0.01503   0.25914   0.13738 
C          C       0.74086   0.75589   0.13738 
C          C       0.27918   0.96503   0.17661 
C          C       0.03497   0.31415   0.17661 
C          C       0.68585   0.72082   0.17661 
C          C       0.19103   0.95225   0.19270 
C          C       0.04775   0.23878   0.19270 
C          C       0.76122   0.80897   0.19270 
C          C       0.23640   0.98029   0.00112 
C          C       0.01971   0.25611   0.00112 
C          C       0.74389   0.76360   0.00112 
N          N       0.25313   0.17300   0.03145 
N          N       0.82700   0.08013   0.03145 
N          N       0.91987   0.74687   0.03145 
C          C       0.21603   0.12531   0.04793 
C          C       0.87469   0.09072   0.04793 
C          C       0.90928   0.78397   0.04793 
N          N       0.21779   0.09415   0.46443 
N          N       0.90585   0.12364   0.46443 
N          N       0.87636   0.78221   0.46443 
N          N       0.40929   0.16829   0.49063 
N          N       0.83171   0.24100   0.49063 
N          N       0.75900   0.59071   0.49063 
C          C       0.44710   0.21570   0.47452 
C          C       0.78430   0.23140   0.47452 
C          C       0.76860   0.55290   0.47452 
N          N       0.44526   0.24743   0.05644 
N          N       0.75257   0.19783   0.05644 
N          N       0.80217   0.55474   0.05644 
C          C       0.48588   0.23632   0.38914 
C          C       0.76368   0.24956   0.38914 
C          C       0.75044   0.51412   0.38914 
C          C       0.17774   0.10347   0.13425 
C          C       0.89653   0.07427   0.13425 
C          C       0.92573   0.82226   0.13425 
C          C       0.17113   0.13169   0.23024 
C          C       0.86831   0.03944   0.23024 
C          C       0.96056   0.82887   0.23024 
C          C       0.13279   0.10595   0.31175 
C          C       0.89405   0.02684   0.31175 
C          C       0.97316   0.86721   0.31175 
C          C       0.09875   0.05302   0.30630 
C          C       0.94698   0.04573   0.30630 
C          C       0.95427   0.90125   0.30630 
C          C       0.10587   0.02609   0.20959 
C          C       0.97391   0.07978   0.20959 
C          C       0.92022   0.89413   0.20959 
C          C       0.14365   0.05060   0.12729 
C          C       0.94940   0.09305   0.12729 
C          C       0.90695   0.85635   0.12729 
C          C       0.49136   0.20730   0.29323 
C          C       0.79270   0.28406   0.29323 
C          C       0.71594   0.50864   0.29323 
C          C       0.53082   0.23156   0.21387 
C          C       0.76844   0.29926   0.21387 
C          C       0.70074   0.46918   0.21387 
C          C       0.56723   0.28397   0.22158 
C          C       0.71603   0.28326   0.22158 
C          C       0.71674   0.43277   0.22158 
C          C       0.56132   0.31161   0.31836 
C          C       0.68839   0.24971   0.31836 
C          C       0.75029   0.43868   0.31836 
C          C       0.52251   0.28852   0.39867 
C          C       0.71148   0.23399   0.39867 
C          C       0.76601   0.47749   0.39867 
H          H       0.33514   0.27606   0.48216 
H          H       0.72394   0.05908   0.48216 
H          H       0.94092   0.66486   0.48216 
H          H       0.44542   0.31227   0.20533 
H          H       0.68773   0.13315   0.20533 
H          H       0.86685   0.55458   0.20533 
H          H       0.21524   0.03106   0.31226 
H          H       0.96894   0.18418   0.31226 
H          H       0.81582   0.78476   0.31226 
H          H       0.32765   0.06460   0.04269 
H          H       0.93540   0.26305   0.04269 
H          H       0.73695   0.67235   0.04269 
H          H       0.38405   0.34635   0.06019 
H          H       0.65365   0.03770   0.06019 
H          H       0.96230   0.61595   0.06019 
H          H       0.35335   0.36030   0.44203 
H          H       0.63970   0.99305   0.44203 
H          H       0.00695   0.64665   0.44203 
H          H       0.41122   0.40889   0.00289 
H          H       0.59111   0.00233   0.00289 
H          H       0.99767   0.58878   0.00289 
H          H       0.49656   0.36644   0.37018 
H          H       0.63356   0.13012   0.37018 
H          H       0.86988   0.50344   0.37018 
H          H       0.46782   0.34572   0.01336 
H          H       0.65428   0.12210   0.01336 
H          H       0.87790   0.53218   0.01336 
H          H       0.49269   0.40988   0.46921 
H          H       0.59012   0.08281   0.46921 
H          H       0.91719   0.50731   0.46921 
H          H       0.39088   0.38243   0.23670 
H          H       0.61757   0.00845   0.23670 
H          H       0.99155   0.60912   0.23670 
H          H       0.45029   0.38742   0.20294 
H          H       0.61258   0.06287   0.20294 
H          H       0.93713   0.54971   0.20294 
H          H       0.44721   0.43133   0.30125 
H          H       0.56867   0.01588   0.30125 
H          H       0.98412   0.55279   0.30125 
H          H       0.31656   0.98590   0.13311 
H          H       0.01410   0.33066   0.13311 
H          H       0.66934   0.68344   0.13311 
H          H       0.26287   0.92480   0.15337 
H          H       0.07520   0.33807   0.15337 
H          H       0.66193   0.73713   0.15337 
H          H       0.28527   0.96828   0.27444 
H          H       0.03172   0.31699   0.27444 
H          H       0.68301   0.71473   0.27444 
H          H       0.17368   0.91293   0.16037 
H          H       0.08707   0.26075   0.16037 
H          H       0.73925   0.82632   0.16037 
H          H       0.16536   0.96636   0.16769 
H          H       0.03364   0.19900   0.16769 
H          H       0.80100   0.83464   0.16769 
H          H       0.19169   0.95053   0.29120 
H          H       0.04947   0.24116   0.29120 
H          H       0.75884   0.80831   0.29120 
H          H       0.27177   0.00104   0.44952 
H          H       0.99896   0.27073   0.44952 
H          H       0.72927   0.72823   0.44952 
H          H       0.21110   0.99458   0.47430 
H          H       0.00542   0.21652   0.47430 
H          H       0.78348   0.78890   0.47430 
H          H       0.21854   0.94025   0.47401 
H          H       0.05975   0.27829   0.47401 
H          H       0.72171   0.78146   0.47401 
H          H       0.26041   0.20122   0.08726 
H          H       0.79878   0.05919   0.08726 
H          H       0.94081   0.73959   0.08726 
H          H       0.40201   0.13961   0.43610 
H          H       0.86039   0.26240   0.43610 
H          H       0.73760   0.59799   0.43610 
F          F       0.20183   0.18198   0.24037 
F          F       0.81802   0.01985   0.24037 
F          F       0.98015   0.79817   0.24037 
C          C       0.05371   0.02861   0.38055 
C          C       0.97139   0.02510   0.38055 
C          C       0.97490   0.94629   0.38055 
H          H       0.14728   0.02824   0.05424 
H          H       0.97176   0.11904   0.05424 
H          H       0.88096   0.85272   0.05424 
F          F       0.45833   0.15745   0.28129 
F          F       0.84255   0.30088   0.28129 
F          F       0.69912   0.54167   0.28129 
C          C       0.61281   0.30674   0.14913 
C          C       0.69326   0.30607   0.14913 
C          C       0.69393   0.38719   0.14913 
H          H       0.52041   0.31113   0.47320 
H          H       0.68887   0.20928   0.47320 
H          H       0.79072   0.47959   0.47320 
H          H       0.12748   0.12732   0.38423 
H          H       0.87268   0.00016   0.38423 
H          H       0.99984   0.87252   0.38423 
H          H       0.07906   0.98561   0.19618 
H          H       0.01439   0.09345   0.19618 
H          H       0.90655   0.92094   0.19618 
H          H       0.58982   0.35155   0.33331 
H          H       0.64845   0.23827   0.33331 
H          H       0.76173   0.41018   0.33331 
H          H       0.53497   0.20946   0.14123 
H          H       0.79054   0.32551   0.14123 
H          H       0.67449   0.46503   0.14123 
C          C       0.02429   0.05240   0.39600 
C          C       0.94760   0.97189   0.39600 
C          C       0.02811   0.97571   0.39600 
C          C       0.64029   0.28085   0.13400 
C          C       0.71915   0.35944   0.13400 
C          C       0.64056   0.35971   0.13400 
H          H       0.04301   0.09306   0.37375 
H          H       0.90694   0.94995   0.37375 
H          H       0.05005   0.95699   0.37375 
H          H       0.62002   0.24008   0.15548 
H          H       0.75992   0.37994   0.15548 
H          H       0.62006   0.37998   0.15548 
C          C       0.35005   0.26490   0.90563 
C          C       0.73510   0.08515   0.90563 
C          C       0.91485   0.64995   0.90563 
C          C       0.32372   0.21249   0.87435 
C          C       0.78751   0.11123   0.87435 
C          C       0.88877   0.67628   0.87435 
C          C       0.34232   0.19682   0.77671 
C          C       0.80318   0.14550   0.77671 
C          C       0.85450   0.65768   0.77671 
C          C       0.38631   0.23354   0.71730 
C          C       0.76646   0.15277   0.71730 
C          C       0.84723   0.61369   0.71730 
C          C       0.41079   0.28484   0.75282 
C          C       0.71516   0.12595   0.75282 
C          C       0.87405   0.58921   0.75282 
C          C       0.39292   0.30133   0.84662 
C          C       0.69867   0.09159   0.84662 
C          C       0.90841   0.60708   0.84662 
C          C       0.28115   0.17448   0.93438 
C          C       0.82552   0.10667   0.93438 
C          C       0.89333   0.71885   0.93438 
C          C       0.25903   0.12590   0.89526 
C          C       0.87410   0.13313   0.89526 
C          C       0.86687   0.74097   0.89526 
C          C       0.27510   0.10909   0.79995 
C          C       0.89091   0.16601   0.79995 
C          C       0.83399   0.72490   0.79995 
C          C       0.31889   0.14590   0.74013 
C          C       0.85410   0.17299   0.74013 
C          C       0.82701   0.68111   0.74013 
C          C       0.33805   0.12981   0.64471 
C          C       0.87019   0.20824   0.64471 
C          C       0.79176   0.66195   0.64471 
C          C       0.38087   0.16756   0.58569 
C          C       0.83244   0.21331   0.58569 
C          C       0.78669   0.61913   0.58569 
C          C       0.40315   0.21628   0.62427 
C          C       0.78372   0.18687   0.62427 
C          C       0.81313   0.59685   0.62427 
C          C       0.25017   0.05782   0.76467 
C          C       0.94218   0.19235   0.76467 
C          C       0.80765   0.74983   0.76467 
C          C       0.26884   0.04093   0.67358 
C          C       0.95907   0.22791   0.67358 
C          C       0.77209   0.73116   0.67358 
C          C       0.31225   0.07707   0.61592 
C          C       0.92293   0.23518   0.61592 
C          C       0.76482   0.68775   0.61592 
C          C       0.42062   0.35741   0.88398 
C          C       0.64259   0.06321   0.88398 
C          C       0.93679   0.57938   0.88398 
C          C       0.39048   0.36861   0.97742 
C          C       0.63139   0.02187   0.97742 
C          C       0.97813   0.60952   0.97742 
C          C       0.47223   0.37052   0.93688 
C          C       0.62948   0.10171   0.93688 
C          C       0.89829   0.52777   0.93688 
C          C       0.42768   0.39123   0.77460 
C          C       0.60877   0.03645   0.77460 
C          C       0.96355   0.57232   0.77460 
C          C       0.24411   0.98497   0.63738 
C          C       0.01503   0.25914   0.63738 
C          C       0.74086   0.75589   0.63738 
C          C       0.27918   0.96503   0.67662 
C          C       0.03497   0.31415   0.67662 
C          C       0.68585   0.72082   0.67662 
C          C       0.19103   0.95225   0.69270 
C          C       0.04775   0.23878   0.69270 
C          C       0.76122   0.80897   0.69270 
C          C       0.23640   0.98029   0.50113 
C          C       0.01971   0.25611   0.50113 
C          C       0.74389   0.76360   0.50113 
N          N       0.25313   0.17300   0.53145 
N          N       0.82700   0.08013   0.53145 
N          N       0.91987   0.74687   0.53145 
C          C       0.21603   0.12531   0.54793 
C          C       0.87469   0.09072   0.54793 
C          C       0.90928   0.78397   0.54793 
N          N       0.21779   0.09415   0.96443 
N          N       0.90585   0.12364   0.96443 
N          N       0.87636   0.78221   0.96443 
N          N       0.40929   0.16829   0.99063 
N          N       0.83171   0.24100   0.99063 
N          N       0.75900   0.59071   0.99063 
C          C       0.44710   0.21570   0.97452 
C          C       0.78430   0.23140   0.97452 
C          C       0.76860   0.55290   0.97452 
N          N       0.44526   0.24743   0.55644 
N          N       0.75257   0.19783   0.55644 
N          N       0.80217   0.55474   0.55644 
C          C       0.48588   0.23632   0.88914 
C          C       0.76368   0.24956   0.88914 
C          C       0.75044   0.51412   0.88914 
C          C       0.17774   0.10347   0.63425 
C          C       0.89653   0.07427   0.63425 
C          C       0.92573   0.82226   0.63425 
C          C       0.17113   0.13169   0.73024 
C          C       0.86831   0.03944   0.73024 
C          C       0.96056   0.82887   0.73024 
C          C       0.13279   0.10595   0.81175 
C          C       0.89405   0.02684   0.81175 
C          C       0.97316   0.86721   0.81175 
C          C       0.09875   0.05302   0.80630 
C          C       0.94698   0.04573   0.80630 
C          C       0.95427   0.90125   0.80630 
C          C       0.10587   0.02609   0.70959 
C          C       0.97391   0.07978   0.70959 
C          C       0.92022   0.89413   0.70959 
C          C       0.14365   0.05060   0.62729 
C          C       0.94940   0.09305   0.62729 
C          C       0.90695   0.85635   0.62729 
C          C       0.49136   0.20730   0.79323 
C          C       0.79270   0.28406   0.79323 
C          C       0.71594   0.50864   0.79323 
C          C       0.53082   0.23156   0.71387 
C          C       0.76844   0.29926   0.71387 
C          C       0.70074   0.46918   0.71387 
C          C       0.56723   0.28397   0.72158 
C          C       0.71603   0.28326   0.72158 
C          C       0.71674   0.43277   0.72158 
C          C       0.56132   0.31161   0.81836 
C          C       0.68839   0.24971   0.81836 
C          C       0.75029   0.43868   0.81836 
C          C       0.52251   0.28852   0.89866 
C          C       0.71148   0.23399   0.89866 
C          C       0.76601   0.47749   0.89866 
H          H       0.33514   0.27606   0.98216 
H          H       0.72394   0.05908   0.98216 
H          H       0.94092   0.66486   0.98216 
H          H       0.44542   0.31227   0.70534 
H          H       0.68773   0.13315   0.70534 
H          H       0.86685   0.55458   0.70534 
H          H       0.21524   0.03106   0.81226 
H          H       0.96894   0.18418   0.81226 
H          H       0.81582   0.78476   0.81226 
H          H       0.32765   0.06460   0.54269 
H          H       0.93540   0.26305   0.54269 
H          H       0.73695   0.67235   0.54269 
H          H       0.38405   0.34635   0.56019 
H          H       0.65365   0.03770   0.56019 
H          H       0.96230   0.61595   0.56019 
H          H       0.35335   0.36030   0.94203 
H          H       0.63970   0.99305   0.94203 
H          H       0.00695   0.64665   0.94203 
H          H       0.41122   0.40889   0.50289 
H          H       0.59111   0.00233   0.50289 
H          H       0.99767   0.58878   0.50289 
H          H       0.49656   0.36644   0.87018 
H          H       0.63356   0.13012   0.87018 
H          H       0.86988   0.50344   0.87018 
H          H       0.46782   0.34572   0.51336 
H          H       0.65428   0.12210   0.51336 
H          H       0.87790   0.53218   0.51336 
H          H       0.49269   0.40988   0.96921 
H          H       0.59012   0.08281   0.96921 
H          H       0.91719   0.50731   0.96921 
H          H       0.39088   0.38243   0.73670 
H          H       0.61757   0.00845   0.73670 
H          H       0.99155   0.60912   0.73670 
H          H       0.45029   0.38742   0.70293 
H          H       0.61258   0.06287   0.70293 
H          H       0.93713   0.54971   0.70293 
H          H       0.44721   0.43133   0.80125 
H          H       0.56867   0.01588   0.80125 
H          H       0.98412   0.55279   0.80125 
H          H       0.31656   0.98590   0.63311 
H          H       0.01410   0.33066   0.63311 
H          H       0.66934   0.68344   0.63311 
H          H       0.26287   0.92480   0.65337 
H          H       0.07520   0.33807   0.65337 
H          H       0.66193   0.73713   0.65337 
H          H       0.28527   0.96828   0.77445 
H          H       0.03172   0.31699   0.77445 
H          H       0.68301   0.71473   0.77445 
H          H       0.17368   0.91293   0.66037 
H          H       0.08707   0.26075   0.66037 
H          H       0.73925   0.82632   0.66037 
H          H       0.16536   0.96636   0.66768 
H          H       0.03364   0.19900   0.66768 
H          H       0.80100   0.83464   0.66768 
H          H       0.19169   0.95053   0.79120 
H          H       0.04947   0.24116   0.79120 
H          H       0.75884   0.80831   0.79120 
H          H       0.27177   0.00104   0.94952 
H          H       0.99896   0.27073   0.94952 
H          H       0.72927   0.72823   0.94952 
H          H       0.21110   0.99458   0.97430 
H          H       0.00542   0.21652   0.97430 
H          H       0.78348   0.78890   0.97430 
H          H       0.21854   0.94025   0.97401 
H          H       0.05975   0.27829   0.97401 
H          H       0.72171   0.78146   0.97401 
H          H       0.26041   0.20122   0.58726 
H          H       0.79878   0.05919   0.58726 
H          H       0.94081   0.73959   0.58726 
H          H       0.40201   0.13961   0.93610 
H          H       0.86039   0.26240   0.93610 
H          H       0.73760   0.59799   0.93610 
F          F       0.20183   0.18198   0.74037 
F          F       0.81802   0.01985   0.74037 
F          F       0.98015   0.79817   0.74037 
C          C       0.05371   0.02861   0.88055 
C          C       0.97139   0.02510   0.88055 
C          C       0.97490   0.94629   0.88055 
H          H       0.14728   0.02824   0.55424 
H          H       0.97176   0.11904   0.55424 
H          H       0.88096   0.85272   0.55424 
F          F       0.45833   0.15745   0.78129 
F          F       0.84255   0.30088   0.78129 
F          F       0.69912   0.54167   0.78129 
C          C       0.61281   0.30674   0.64912 
C          C       0.69326   0.30607   0.64912 
C          C       0.69393   0.38719   0.64912 
H          H       0.52041   0.31113   0.97319 
H          H       0.68887   0.20928   0.97319 
H          H       0.79072   0.47959   0.97319 
H          H       0.12748   0.12732   0.88423 
H          H       0.87268   0.00016   0.88423 
H          H       0.99984   0.87252   0.88423 
H          H       0.07906   0.98561   0.69618 
H          H       0.01439   0.09345   0.69618 
H          H       0.90655   0.92094   0.69618 
H          H       0.58982   0.35155   0.83331 
H          H       0.64845   0.23827   0.83331 
H          H       0.76173   0.41018   0.83331 
H          H       0.53497   0.20946   0.64123 
H          H       0.79054   0.32551   0.64123 
H          H       0.67449   0.46503   0.64123 
C          C       0.02429   0.05240   0.89600 
C          C       0.94760   0.97189   0.89600 
C          C       0.02811   0.97571   0.89600 
C          C       0.64029   0.28085   0.63400 
C          C       0.71915   0.35944   0.63400 
C          C       0.64056   0.35971   0.63400 
H          H       0.04301   0.09306   0.87375 
H          H       0.90694   0.94995   0.87375 
H          H       0.05005   0.95699   0.87375 
H          H       0.62002   0.24008   0.65549 
H          H       0.75992   0.37994   0.65549 
H          H       0.62006   0.37998   0.65549 
