data_crystal

_cell_length_a    29.57500
_cell_length_b    29.57500
_cell_length_c    11.52000
_cell_angle_alpha 90.00000
_cell_angle_beta  90.00000
_cell_angle_gamma 120.00000

_space_group_name_Hall 'P 1'
_space_group_name_H-M_alt  'P 1'

loop_
_symmetry_equiv_pos_as_xyz
'x,y,z' 

loop_
_atom_site_label
_atom_site_type_symbol
_atom_site_fract_x
_atom_site_fract_y
_atom_site_fract_z
C          C       0.32867   0.27358   0.38275 
C          C       0.72642   0.05509   0.38275 
C          C       0.94491   0.67133   0.38275 
C          C       0.30699   0.22065   0.36054 
C          C       0.77935   0.08634   0.36054 
C          C       0.91366   0.69301   0.36054 
C          C       0.32636   0.20557   0.26332 
C          C       0.79443   0.12079   0.26332 
C          C       0.87921   0.67364   0.26332 
C          C       0.36594   0.24360   0.19409 
C          C       0.75640   0.12234   0.19409 
C          C       0.87766   0.63406   0.19409 
C          C       0.38598   0.29537   0.22169 
C          C       0.70463   0.09061   0.22169 
C          C       0.90939   0.61402   0.22169 
C          C       0.36768   0.31115   0.31608 
C          C       0.68885   0.05653   0.31608 
C          C       0.94347   0.63232   0.31608 
C          C       0.26828   0.18188   0.42840 
C          C       0.81812   0.08640   0.42840 
C          C       0.91360   0.73172   0.42840 
C          C       0.25071   0.13278   0.39807 
C          C       0.86722   0.11793   0.39807 
C          C       0.88207   0.74929   0.39807 
C          C       0.26826   0.11629   0.30495 
C          C       0.88371   0.15197   0.30495 
C          C       0.84803   0.73174   0.30495 
C          C       0.30831   0.15422   0.23736 
C          C       0.84578   0.15409   0.23736 
C          C       0.84591   0.69169   0.23736 
C          C       0.32932   0.13877   0.14478 
C          C       0.86123   0.19055   0.14478 
C          C       0.80945   0.67068   0.14478 
C          C       0.36896   0.17753   0.07926 
C          C       0.82247   0.19143   0.07926 
C          C       0.80857   0.63104   0.07926 
C          C       0.38479   0.22687   0.10390 
C          C       0.77313   0.15792   0.10390 
C          C       0.84208   0.61521   0.10390 
C          C       0.24777   0.06452   0.27790 
C          C       0.93548   0.18325   0.27790 
C          C       0.81675   0.75223   0.27790 
C          C       0.26740   0.04836   0.18757 
C          C       0.95164   0.21904   0.18757 
C          C       0.78096   0.73260   0.18757 
C          C       0.30839   0.08566   0.12514 
C          C       0.91434   0.22273   0.12514 
C          C       0.77727   0.69161   0.12514 
C          C       0.39113   0.36765   0.34750 
C          C       0.63235   0.02348   0.34750 
C          C       0.97652   0.60887   0.34750 
C          C       0.35836   0.37688   0.43798 
C          C       0.62312   0.98148   0.43798 
C          C       0.01852   0.64164   0.43798 
C          C       0.44387   0.38578   0.40142 
C          C       0.61422   0.05809   0.40142 
C          C       0.94191   0.55613   0.40142 
C          C       0.39563   0.39907   0.23546 
C          C       0.60093   0.99656   0.23546 
C          C       0.00344   0.60437   0.23546 
C          C       0.24618   0.99220   0.15715 
C          C       0.00780   0.25398   0.15715 
C          C       0.74602   0.75382   0.15715 
C          C       0.28450   0.97647   0.19824 
C          C       0.02353   0.30803   0.19824 
C          C       0.69197   0.71550   0.19824 
C          C       0.19396   0.95761   0.21493 
C          C       0.04239   0.23635   0.21493 
C          C       0.76365   0.80604   0.21493 
C          C       0.23724   0.98471   0.02142 
C          C       0.01529   0.25253   0.02142 
C          C       0.74747   0.76276   0.02142 
N          N       0.24070   0.18009   0.02632 
N          N       0.81991   0.06061   0.02632 
N          N       0.93939   0.75930   0.02632 
C          C       0.20802   0.13159   0.05195 
C          C       0.86841   0.07643   0.05195 
C          C       0.92357   0.79198   0.05195 
N          N       0.21258   0.10025   0.47386 
N          N       0.89975   0.11233   0.47386 
N          N       0.88767   0.78742   0.47386 
N          N       0.39866   0.17846   0.48726 
N          N       0.82154   0.22020   0.48726 
N          N       0.77980   0.60134   0.48726 
C          C       0.43080   0.22668   0.45827 
C          C       0.77332   0.20412   0.45827 
C          C       0.79588   0.56920   0.45827 
N          N       0.42386   0.25883   0.02844 
N          N       0.74117   0.16503   0.02844 
N          N       0.83497   0.57614   0.02844 
C          C       0.47093   0.24703   0.37531 
C          C       0.75297   0.22390   0.37531 
C          C       0.77610   0.52907   0.37531 
C          C       0.17171   0.10925   0.14236 
C          C       0.89075   0.06246   0.14236 
C          C       0.93754   0.82829   0.14236 
C          C       0.16248   0.13752   0.23356 
C          C       0.86248   0.02496   0.23356 
C          C       0.97504   0.83752   0.23356 
C          C       0.12669   0.11140   0.31986 
C          C       0.88860   0.01529   0.31986 
C          C       0.98471   0.87331   0.31986 
C          C       0.09719   0.05771   0.32346 
C          C       0.94229   0.03948   0.32346 
C          C       0.96052   0.90281   0.32346 
C          C       0.10671   0.03068   0.23134 
C          C       0.96932   0.07603   0.23134 
C          C       0.92397   0.89329   0.23134 
C          C       0.14219   0.05554   0.14460 
C          C       0.94446   0.08665   0.14460 
C          C       0.91335   0.85781   0.14460 
C          C       0.48703   0.21667   0.30914 
C          C       0.78333   0.27036   0.30914 
C          C       0.72964   0.51297   0.30914 
C          C       0.53346   0.23871   0.25423 
C          C       0.76129   0.29475   0.25423 
C          C       0.70525   0.46654   0.25423 
C          C       0.56524   0.29239   0.25413 
C          C       0.70761   0.27285   0.25413 
C          C       0.72715   0.43476   0.25413 
C          C       0.54524   0.32280   0.29832 
C          C       0.67720   0.22244   0.29832 
C          C       0.77756   0.45476   0.29832 
C          C       0.50083   0.30073   0.36261 
C          C       0.69927   0.20010   0.36261 
C          C       0.79990   0.49917   0.36261 
H          H       0.31350   0.28419   0.45967 
H          H       0.71581   0.02931   0.45967 
H          H       0.97069   0.68650   0.45967 
H          H       0.41799   0.32367   0.16830 
H          H       0.67633   0.09432   0.16830 
H          H       0.90568   0.58201   0.16830 
H          H       0.21525   0.03689   0.33073 
H          H       0.96311   0.17836   0.33073 
H          H       0.82164   0.78475   0.33073 
H          H       0.32500   0.07392   0.05330 
H          H       0.92608   0.25108   0.05330 
H          H       0.74892   0.67500   0.05330 
H          H       0.35422   0.35716   0.02338 
H          H       0.64284   0.99706   0.02338 
H          H       0.00294   0.64578   0.02338 
H          H       0.32010   0.36426   0.40236 
H          H       0.63574   0.95584   0.40236 
H          H       0.04416   0.67990   0.40236 
H          H       0.37592   0.41765   0.45863 
H          H       0.58235   0.95827   0.45863 
H          H       0.04173   0.62408   0.45863 
H          H       0.46961   0.38317   0.33598 
H          H       0.61683   0.08644   0.33598 
H          H       0.91356   0.53039   0.33598 
H          H       0.44185   0.36317   0.48058 
H          H       0.63683   0.07868   0.48058 
H          H       0.92132   0.55815   0.48058 
H          H       0.46158   0.42570   0.42998 
H          H       0.57430   0.03588   0.42998 
H          H       0.96412   0.53842   0.42998 
H          H       0.35791   0.38742   0.19792 
H          H       0.61258   0.97049   0.19792 
H          H       0.02951   0.64209   0.19792 
H          H       0.41912   0.39605   0.16453 
H          H       0.60395   0.02307   0.16453 
H          H       0.97693   0.58088   0.16453 
H          H       0.41321   0.43961   0.25878 
H          H       0.56039   0.97360   0.25878 
H          H       0.02640   0.58679   0.25878 
H          H       0.32132   0.99855   0.15259 
H          H       0.00145   0.32277   0.15259 
H          H       0.67723   0.67868   0.15259 
H          H       0.27036   0.93612   0.17826 
H          H       0.06388   0.33424   0.17826 
H          H       0.66576   0.72964   0.17826 
H          H       0.29145   0.98171   0.29551 
H          H       0.01829   0.30974   0.29551 
H          H       0.69026   0.70855   0.29551 
H          H       0.17888   0.91807   0.18526 
H          H       0.08193   0.26081   0.18526 
H          H       0.73919   0.82112   0.18526 
H          H       0.16621   0.96899   0.18826 
H          H       0.03101   0.19722   0.18826 
H          H       0.80278   0.83379   0.18826 
H          H       0.19521   0.95728   0.31328 
H          H       0.04272   0.23793   0.31328 
H          H       0.76207   0.80479   0.31328 
H          H       0.27180   0.00654   0.46766 
H          H       0.99346   0.26526   0.46766 
H          H       0.73474   0.72820   0.46766 
H          H       0.20951   0.99587   0.49324 
H          H       0.00413   0.21364   0.49324 
H          H       0.78636   0.79049   0.49324 
H          H       0.22161   0.94443   0.49782 
H          H       0.05557   0.27718   0.49782 
H          H       0.72282   0.77839   0.49782 
H          H       0.24553   0.20923   0.07628 
H          H       0.79077   0.03630   0.07628 
H          H       0.96370   0.75447   0.07628 
H          H       0.39581   0.14865   0.44420 
H          H       0.85135   0.24716   0.44420 
H          H       0.75284   0.60419   0.44420 
F          F       0.18870   0.18844   0.23533 
F          F       0.81156   0.00026   0.23533 
F          F       0.99974   0.81130   0.23533 
C          C       0.05344   0.03158   0.40229 
C          C       0.96842   0.02186   0.40229 
C          C       0.97814   0.94656   0.40229 
H          H       0.14774   0.03300   0.07529 
H          H       0.96700   0.11474   0.07529 
H          H       0.88526   0.85226   0.07529 
H          H       0.46471   0.17510   0.31429 
H          H       0.82490   0.28961   0.31429 
H          H       0.71039   0.53529   0.31429 
C          C       0.61742   0.31349   0.23735 
C          C       0.68651   0.30393   0.23735 
C          C       0.69607   0.38258   0.23735 
H          H       0.48932   0.32499   0.41013 
H          H       0.67501   0.16433   0.41013 
H          H       0.83567   0.51068   0.41013 
H          H       0.11974   0.13308   0.38863 
H          H       0.86692   0.98666   0.38863 
H          H       0.01334   0.88026   0.38863 
H          H       0.08327   0.98919   0.22461 
H          H       0.01081   0.09408   0.22461 
H          H       0.90592   0.91673   0.22461 
H          H       0.56903   0.36440   0.29995 
H          H       0.63560   0.20463   0.29995 
H          H       0.79537   0.43097   0.29995 
H          H       0.54765   0.21445   0.21829 
H          H       0.78555   0.33320   0.21829 
H          H       0.66680   0.45235   0.21829 
C          C       0.02113   0.05213   0.41946 
C          C       0.94787   0.96900   0.41946 
C          C       0.03100   0.97887   0.41946 
N          N       0.63572   0.28153   0.23718 
N          N       0.71847   0.35419   0.23718 
N          N       0.64581   0.36428   0.23718 
H          H       0.03728   0.09263   0.39801 
H          H       0.90737   0.94465   0.39801 
H          H       0.05535   0.96272   0.39801 
C          C       0.32867   0.27358   0.88275 
C          C       0.72642   0.05509   0.88275 
C          C       0.94491   0.67133   0.88275 
C          C       0.30699   0.22065   0.86054 
C          C       0.77935   0.08634   0.86054 
C          C       0.91366   0.69301   0.86054 
C          C       0.32636   0.20557   0.76332 
C          C       0.79443   0.12079   0.76332 
C          C       0.87921   0.67364   0.76332 
C          C       0.36594   0.24360   0.69409 
C          C       0.75640   0.12234   0.69409 
C          C       0.87766   0.63406   0.69409 
C          C       0.38598   0.29537   0.72169 
C          C       0.70463   0.09061   0.72169 
C          C       0.90939   0.61402   0.72169 
C          C       0.36768   0.31115   0.81608 
C          C       0.68885   0.05653   0.81608 
C          C       0.94347   0.63232   0.81608 
C          C       0.26828   0.18188   0.92840 
C          C       0.81812   0.08640   0.92840 
C          C       0.91360   0.73172   0.92840 
C          C       0.25071   0.13278   0.89806 
C          C       0.86722   0.11793   0.89806 
C          C       0.88207   0.74929   0.89806 
C          C       0.26826   0.11629   0.80495 
C          C       0.88371   0.15197   0.80495 
C          C       0.84803   0.73174   0.80495 
C          C       0.30831   0.15422   0.73736 
C          C       0.84578   0.15409   0.73736 
C          C       0.84591   0.69169   0.73736 
C          C       0.32932   0.13877   0.64478 
C          C       0.86123   0.19055   0.64478 
C          C       0.80945   0.67068   0.64478 
C          C       0.36896   0.17753   0.57926 
C          C       0.82247   0.19143   0.57926 
C          C       0.80857   0.63104   0.57926 
C          C       0.38479   0.22687   0.60390 
C          C       0.77313   0.15792   0.60390 
C          C       0.84208   0.61521   0.60390 
C          C       0.24777   0.06452   0.77789 
C          C       0.93548   0.18325   0.77789 
C          C       0.81675   0.75223   0.77789 
C          C       0.26740   0.04836   0.68757 
C          C       0.95164   0.21904   0.68757 
C          C       0.78096   0.73260   0.68757 
C          C       0.30839   0.08566   0.62514 
C          C       0.91434   0.22273   0.62514 
C          C       0.77727   0.69161   0.62514 
C          C       0.39113   0.36765   0.84750 
C          C       0.63235   0.02348   0.84750 
C          C       0.97652   0.60887   0.84750 
C          C       0.35836   0.37688   0.93798 
C          C       0.62312   0.98148   0.93798 
C          C       0.01852   0.64164   0.93798 
C          C       0.44387   0.38578   0.90141 
C          C       0.61422   0.05809   0.90141 
C          C       0.94191   0.55613   0.90141 
C          C       0.39563   0.39907   0.73546 
C          C       0.60093   0.99656   0.73546 
C          C       0.00344   0.60437   0.73546 
C          C       0.24618   0.99220   0.65715 
C          C       0.00780   0.25398   0.65715 
C          C       0.74602   0.75382   0.65715 
C          C       0.28450   0.97647   0.69824 
C          C       0.02353   0.30803   0.69824 
C          C       0.69197   0.71550   0.69824 
C          C       0.19396   0.95761   0.71493 
C          C       0.04239   0.23635   0.71493 
C          C       0.76365   0.80604   0.71493 
C          C       0.23724   0.98471   0.52142 
C          C       0.01529   0.25253   0.52142 
C          C       0.74747   0.76276   0.52142 
N          N       0.24070   0.18009   0.52632 
N          N       0.81991   0.06061   0.52632 
N          N       0.93939   0.75930   0.52632 
C          C       0.20802   0.13159   0.55195 
C          C       0.86841   0.07643   0.55195 
C          C       0.92357   0.79198   0.55195 
N          N       0.21258   0.10025   0.97386 
N          N       0.89975   0.11233   0.97386 
N          N       0.88767   0.78742   0.97386 
N          N       0.39866   0.17846   0.98726 
N          N       0.82154   0.22020   0.98726 
N          N       0.77980   0.60134   0.98726 
C          C       0.43080   0.22668   0.95827 
C          C       0.77332   0.20412   0.95827 
C          C       0.79588   0.56920   0.95827 
N          N       0.42386   0.25883   0.52844 
N          N       0.74117   0.16503   0.52844 
N          N       0.83497   0.57614   0.52844 
C          C       0.47093   0.24703   0.87531 
C          C       0.75297   0.22390   0.87531 
C          C       0.77610   0.52907   0.87531 
C          C       0.17171   0.10925   0.64236 
C          C       0.89075   0.06246   0.64236 
C          C       0.93754   0.82829   0.64236 
C          C       0.16248   0.13752   0.73356 
C          C       0.86248   0.02496   0.73356 
C          C       0.97504   0.83752   0.73356 
C          C       0.12669   0.11140   0.81986 
C          C       0.88860   0.01529   0.81986 
C          C       0.98471   0.87331   0.81986 
C          C       0.09719   0.05771   0.82346 
C          C       0.94229   0.03948   0.82346 
C          C       0.96052   0.90281   0.82346 
C          C       0.10671   0.03068   0.73134 
C          C       0.96932   0.07603   0.73134 
C          C       0.92397   0.89329   0.73134 
C          C       0.14219   0.05554   0.64459 
C          C       0.94446   0.08665   0.64459 
C          C       0.91335   0.85781   0.64459 
C          C       0.48703   0.21667   0.80914 
C          C       0.78333   0.27036   0.80914 
C          C       0.72964   0.51297   0.80914 
C          C       0.53346   0.23871   0.75423 
C          C       0.76129   0.29475   0.75423 
C          C       0.70525   0.46654   0.75423 
C          C       0.56524   0.29239   0.75413 
C          C       0.70761   0.27285   0.75413 
C          C       0.72715   0.43476   0.75413 
C          C       0.54524   0.32280   0.79832 
C          C       0.67720   0.22244   0.79832 
C          C       0.77756   0.45476   0.79832 
C          C       0.50083   0.30073   0.86261 
C          C       0.69927   0.20010   0.86261 
C          C       0.79990   0.49917   0.86261 
H          H       0.31350   0.28419   0.95967 
H          H       0.71581   0.02931   0.95967 
H          H       0.97069   0.68650   0.95967 
H          H       0.41799   0.32367   0.66830 
H          H       0.67633   0.09432   0.66830 
H          H       0.90568   0.58201   0.66830 
H          H       0.21525   0.03689   0.83073 
H          H       0.96311   0.17836   0.83073 
H          H       0.82164   0.78475   0.83073 
H          H       0.32500   0.07392   0.55330 
H          H       0.92608   0.25108   0.55330 
H          H       0.74892   0.67500   0.55330 
H          H       0.35422   0.35716   0.52338 
H          H       0.64284   0.99706   0.52338 
H          H       0.00294   0.64578   0.52338 
H          H       0.32010   0.36426   0.90236 
H          H       0.63574   0.95584   0.90236 
H          H       0.04416   0.67990   0.90236 
H          H       0.37592   0.41765   0.95863 
H          H       0.58235   0.95827   0.95863 
H          H       0.04173   0.62408   0.95863 
H          H       0.46961   0.38317   0.83598 
H          H       0.61683   0.08644   0.83598 
H          H       0.91356   0.53039   0.83598 
H          H       0.44185   0.36317   0.98058 
H          H       0.63683   0.07868   0.98058 
H          H       0.92132   0.55815   0.98058 
H          H       0.46158   0.42570   0.92998 
H          H       0.57430   0.03588   0.92998 
H          H       0.96412   0.53842   0.92998 
H          H       0.35791   0.38742   0.69793 
H          H       0.61258   0.97049   0.69793 
H          H       0.02951   0.64209   0.69793 
H          H       0.41912   0.39605   0.66453 
H          H       0.60395   0.02307   0.66453 
H          H       0.97693   0.58088   0.66453 
H          H       0.41321   0.43961   0.75878 
H          H       0.56039   0.97360   0.75878 
H          H       0.02640   0.58679   0.75878 
H          H       0.32132   0.99855   0.65259 
H          H       0.00145   0.32277   0.65259 
H          H       0.67723   0.67868   0.65259 
H          H       0.27036   0.93612   0.67826 
H          H       0.06388   0.33424   0.67826 
H          H       0.66576   0.72964   0.67826 
H          H       0.29145   0.98171   0.79551 
H          H       0.01829   0.30974   0.79551 
H          H       0.69026   0.70855   0.79551 
H          H       0.17888   0.91807   0.68527 
H          H       0.08193   0.26081   0.68527 
H          H       0.73919   0.82112   0.68527 
H          H       0.16621   0.96899   0.68826 
H          H       0.03101   0.19722   0.68826 
H          H       0.80278   0.83379   0.68826 
H          H       0.19521   0.95728   0.81329 
H          H       0.04272   0.23793   0.81329 
H          H       0.76207   0.80479   0.81329 
H          H       0.27180   0.00654   0.96766 
H          H       0.99346   0.26526   0.96766 
H          H       0.73474   0.72820   0.96766 
H          H       0.20951   0.99587   0.99324 
H          H       0.00413   0.21364   0.99324 
H          H       0.78636   0.79049   0.99324 
H          H       0.22161   0.94443   0.99782 
H          H       0.05557   0.27718   0.99782 
H          H       0.72282   0.77839   0.99782 
H          H       0.24553   0.20923   0.57628 
H          H       0.79077   0.03630   0.57628 
H          H       0.96370   0.75447   0.57628 
H          H       0.39581   0.14865   0.94420 
H          H       0.85135   0.24716   0.94420 
H          H       0.75284   0.60419   0.94420 
F          F       0.18870   0.18844   0.73532 
F          F       0.81156   0.00026   0.73532 
F          F       0.99974   0.81130   0.73532 
C          C       0.05344   0.03158   0.90229 
C          C       0.96842   0.02186   0.90229 
C          C       0.97814   0.94656   0.90229 
H          H       0.14774   0.03300   0.57529 
H          H       0.96700   0.11474   0.57529 
H          H       0.88526   0.85226   0.57529 
H          H       0.46471   0.17510   0.81429 
H          H       0.82490   0.28961   0.81429 
H          H       0.71039   0.53529   0.81429 
C          C       0.61742   0.31349   0.73735 
C          C       0.68651   0.30393   0.73735 
C          C       0.69607   0.38258   0.73735 
H          H       0.48932   0.32499   0.91013 
H          H       0.67501   0.16433   0.91013 
H          H       0.83567   0.51068   0.91013 
H          H       0.11974   0.13308   0.88863 
H          H       0.86692   0.98666   0.88863 
H          H       0.01334   0.88026   0.88863 
H          H       0.08327   0.98919   0.72461 
H          H       0.01081   0.09408   0.72461 
H          H       0.90592   0.91673   0.72461 
H          H       0.56903   0.36440   0.79995 
H          H       0.63560   0.20463   0.79995 
H          H       0.79537   0.43097   0.79995 
H          H       0.54765   0.21445   0.71829 
H          H       0.78555   0.33320   0.71829 
H          H       0.66680   0.45235   0.71829 
C          C       0.02113   0.05213   0.91946 
C          C       0.94787   0.96900   0.91946 
C          C       0.03100   0.97887   0.91946 
N          N       0.63572   0.28153   0.73718 
N          N       0.71847   0.35419   0.73718 
N          N       0.64581   0.36428   0.73718 
H          H       0.03728   0.09263   0.89800 
H          H       0.90737   0.94465   0.89800 
H          H       0.05535   0.96272   0.89800 
