data_crystal

_cell_length_a    30.17760
_cell_length_b    22.29760
_cell_length_c    10.05400
_cell_angle_alpha 82.62000
_cell_angle_beta  86.04000
_cell_angle_gamma 90.06000

_space_group_name_Hall 'P 1'
_space_group_name_H-M_alt  'P 1'

loop_
_symmetry_equiv_pos_as_xyz
'x,y,z' 

loop_
_atom_site_label
_atom_site_type_symbol
_atom_site_fract_x
_atom_site_fract_y
_atom_site_fract_z
N          N       0.37245   0.03629   0.47223 
N          N       0.28559   0.79503   0.37992 
N          N       0.10767   0.77954   0.23930 
N          N       0.42018   0.61757   0.33700 
N          N       0.00169   0.58456   0.12147 
N          N       0.00116   0.01459   0.21338 
C          C       0.38697   0.10342   0.48730 
C          C       0.23988   0.78221   0.35786 
C          C       0.20538   0.80860   0.43035 
C          C       0.16154   0.80395   0.39730 
C          C       0.15109   0.77295   0.29074 
C          C       0.18481   0.74194   0.22560 
C          C       0.22909   0.74735   0.25732 
C          C       0.08441   0.72877   0.20008 
C          C       0.08725   0.83842   0.23016 
C          C       0.29741   0.85457   0.40957 
C          C       0.31964   0.75005   0.36895 
C          C       0.27827   0.90649   0.34323 
C          C       0.46267   0.62793   0.33490 
C          C       0.97862   0.58165   0.01777 
C          C       0.69959   0.32588   0.13779 
C          C       0.69257   0.26445   0.14588 
C          C       0.64943   0.23549   0.20221 
C          C       0.72820   0.22260   0.10805 
C          C       0.74444   0.35643   0.10477 
C          C       0.66243   0.36706   0.17023 
C          C       0.66788   0.40609   0.26646 
C          C       0.63461   0.44641   0.29736 
C          C       0.59493   0.44893   0.23160 
C          C       0.58919   0.40948   0.13548 
C          C       0.62262   0.36889   0.10527 
C          C       0.78408   0.33076   0.15115 
C          C       0.82460   0.36209   0.12547 
C          C       0.82654   0.42130   0.05756 
C          C       0.78693   0.44764   0.01395 
C          C       0.74677   0.41579   0.03700 
C          C       0.62794   0.25210   0.31966 
C          C       0.58553   0.23006   0.36416 
C          C       0.56463   0.18739   0.29741 
C          C       0.58793   0.16647   0.18653 
C          C       0.63006   0.19001   0.14018 
C          C       0.73868   0.17298   0.20053 
C          C       0.93935   0.08942   0.08592 
C          C       0.93158   0.14677   0.01712 
C          C       0.88819   0.16721   0.00292 
C          C       0.98483   0.07341   0.12192 
H          H       0.36593   0.13366   0.53935 
H          H       0.21274   0.83466   0.50995 
H          H       0.13571   0.82682   0.45062 
H          H       0.17721   0.71741   0.14371 
H          H       0.25514   0.72721   0.19876 
H          H       0.05445   0.78169   0.03621 
H          H       0.00775   0.69992   0.98442 
H          H       0.06160   0.57942   0.30191 
H          H       0.10771   0.66337   0.35671 
H          H       0.14635   0.88648   0.14043 
H          H       0.11510   0.98742   0.15054 
H          H       0.99223   0.90680   0.33332 
H          H       0.02326   0.80521   0.31881 
H          H       0.27843   0.67450   0.46062 
H          H       0.33727   0.59836   0.43956 
H          H       0.42750   0.73895   0.25316 
H          H       0.55152   0.63995   0.32447 
H          H       0.44790   0.51025   0.29377 
H          H       0.50426   0.43427   0.25091 
H          H       0.89561   0.41585   0.22398 
H          H       0.96056   0.48258   0.20544 
H          H       0.91765   0.57677   0.83586 
H          H       0.85376   0.50869   0.84975 
H          H       0.49632   0.25087   0.40412 
C          C       0.05660   0.73748   0.09336 
C          C       0.03027   0.69019   0.06308 
C          C       0.03189   0.63252   0.13810 
C          C       0.06072   0.62328   0.24195 
C          C       0.08695   0.67089   0.27266 
C          C       0.11239   0.89052   0.18008 
C          C       0.09457   0.94798   0.18599 
C          C       0.04828   0.96650   0.24065 
C          C       0.02428   0.91134   0.28642 
C          C       0.04321   0.84482   0.28061 
C          C       0.31092   0.68870   0.41513 
C          C       0.34426   0.64550   0.40387 
C          C       0.38687   0.66297   0.34860 
C          C       0.39550   0.72426   0.30129 
C          C       0.36235   0.76725   0.31265 
C          C       0.32725   0.86127   0.50772 
C          C       0.33751   0.91865   0.54005 
C          C       0.31732   0.97014   0.47639 
C          C       0.28753   0.96367   0.37795 
C          C       0.77743   0.14043   0.17931 
C          C       0.80619   0.15626   0.06388 
C          C       0.79311   0.20207   0.96506 
C          C       0.75411   0.23448   0.98645 
C          C       0.51886   0.16525   0.34395 
C          C       0.56042   0.49385   0.26081 
C          C       0.86880   0.45721   0.03934 
C          C       0.85161   0.13027   0.05559 
C          C       0.57295   0.55232   0.28286 
C          C       0.54088   0.59511   0.30896 
C          C       0.49556   0.58065   0.31282 
C          C       0.48275   0.52224   0.29144 
C          C       0.51493   0.47915   0.26586 
C          C       0.90050   0.44947   0.13643 
C          C       0.93754   0.48802   0.12682 
C          C       0.94353   0.53526   0.02047 
C          C       0.91336   0.54113   0.91992 
C          C       0.87652   0.50248   0.92891 
C          C       0.48787   0.20410   0.39878 
C          C       0.44527   0.18341   0.44589 
C          C       0.43229   0.12379   0.43710 
C          C       0.46273   0.08495   0.38070 
C          C       0.50571   0.10534   0.33532 
C          C       0.85962   0.07091   0.11473 
C          C       0.90308   0.05089   0.13078 
H          H       0.36993   0.81417   0.27640 
H          H       0.34212   0.82172   0.55941 
H          H       0.36050   0.92311   0.61644 
H          H       0.27151   0.00284   0.32785 
H          H       0.25581   0.90239   0.26539 
H          H       0.47499   0.67214   0.34916 
H          H       0.98243   0.61555   0.93056 
H          H       0.69832   0.40501   0.31688 
H          H       0.63980   0.47527   0.37381 
H          H       0.55938   0.41110   0.08107 
H          H       0.61750   0.33951   0.03044 
H          H       0.78422   0.28661   0.20840 
H          H       0.85430   0.33990   0.16020 
H          H       0.78643   0.49395   0.96629 
H          H       0.71700   0.43898   0.00617 
H          H       0.64406   0.28283   0.37598 
H          H       0.56950   0.24567   0.45284 
H          H       0.57297   0.13376   0.13204 
H          H       0.64694   0.17414   0.05291 
H          H       0.71860   0.16229   0.29423 
H          H       0.78643   0.10600   0.25857 
H          H       0.81386   0.21412   0.87343 
H          H       0.74539   0.27149   0.91282 
H          H       0.60764   0.56546   0.27723 
H          H       0.42224   0.21422   0.48843 
H          H       0.45324   0.03871   0.37311 
H          H       0.52877   0.07390   0.29555 
H          H       0.83230   0.04071   0.15330 
H          H       0.90845   0.00620   0.18300 
H          H       0.95910   0.17715   0.98133 
H          H       0.88349   0.21336   0.95827 
H          H       0.01190   0.10411   0.08292 
N          N       0.37245   0.03629   0.97223 
N          N       0.28559   0.79503   0.87992 
N          N       0.10767   0.77954   0.73930 
N          N       0.42018   0.61757   0.83700 
N          N       0.00169   0.58456   0.62147 
N          N       0.00116   0.01459   0.71338 
C          C       0.38697   0.10342   0.98730 
C          C       0.23988   0.78221   0.85786 
C          C       0.20538   0.80860   0.93035 
C          C       0.16154   0.80395   0.89730 
C          C       0.15109   0.77295   0.79074 
C          C       0.18481   0.74194   0.72560 
C          C       0.22909   0.74735   0.75732 
C          C       0.08441   0.72877   0.70008 
C          C       0.08725   0.83842   0.73016 
C          C       0.29741   0.85457   0.90957 
C          C       0.31964   0.75005   0.86895 
C          C       0.27827   0.90649   0.84323 
C          C       0.46267   0.62793   0.83490 
C          C       0.97862   0.58165   0.51777 
C          C       0.69959   0.32588   0.63779 
C          C       0.69257   0.26445   0.64588 
C          C       0.64943   0.23549   0.70221 
C          C       0.72820   0.22260   0.60805 
C          C       0.74444   0.35643   0.60477 
C          C       0.66243   0.36706   0.67023 
C          C       0.66788   0.40609   0.76646 
C          C       0.63461   0.44641   0.79736 
C          C       0.59493   0.44893   0.73160 
C          C       0.58919   0.40948   0.63548 
C          C       0.62262   0.36889   0.60527 
C          C       0.78408   0.33076   0.65115 
C          C       0.82460   0.36209   0.62547 
C          C       0.82654   0.42130   0.55756 
C          C       0.78693   0.44764   0.51395 
C          C       0.74677   0.41579   0.53700 
C          C       0.62794   0.25210   0.81966 
C          C       0.58553   0.23006   0.86416 
C          C       0.56463   0.18739   0.79741 
C          C       0.58793   0.16647   0.68653 
C          C       0.63006   0.19001   0.64018 
C          C       0.73868   0.17298   0.70053 
C          C       0.93935   0.08942   0.58592 
C          C       0.93158   0.14677   0.51712 
C          C       0.88819   0.16721   0.50292 
C          C       0.98483   0.07341   0.62192 
H          H       0.36593   0.13366   0.03935 
H          H       0.21274   0.83466   0.00995 
H          H       0.13571   0.82682   0.95062 
H          H       0.17721   0.71741   0.64371 
H          H       0.25514   0.72721   0.69876 
H          H       0.05445   0.78169   0.53621 
H          H       0.00775   0.69992   0.48442 
H          H       0.06160   0.57942   0.80191 
H          H       0.10771   0.66337   0.85671 
H          H       0.14635   0.88648   0.64043 
H          H       0.11510   0.98742   0.65054 
H          H       0.99223   0.90680   0.83332 
H          H       0.02326   0.80521   0.81881 
H          H       0.27843   0.67450   0.96062 
H          H       0.33727   0.59836   0.93956 
H          H       0.42750   0.73895   0.75316 
H          H       0.55152   0.63995   0.82447 
H          H       0.44790   0.51025   0.79377 
H          H       0.50426   0.43427   0.75091 
H          H       0.89561   0.41585   0.72398 
H          H       0.96056   0.48258   0.70544 
H          H       0.91765   0.57677   0.33586 
H          H       0.85376   0.50869   0.34975 
H          H       0.49632   0.25087   0.90412 
C          C       0.05660   0.73748   0.59336 
C          C       0.03027   0.69019   0.56308 
C          C       0.03189   0.63252   0.63810 
C          C       0.06072   0.62328   0.74195 
C          C       0.08695   0.67089   0.77266 
C          C       0.11239   0.89052   0.68008 
C          C       0.09457   0.94798   0.68599 
C          C       0.04828   0.96650   0.74065 
C          C       0.02428   0.91134   0.78642 
C          C       0.04321   0.84482   0.78061 
C          C       0.31092   0.68870   0.91513 
C          C       0.34426   0.64550   0.90387 
C          C       0.38687   0.66297   0.84860 
C          C       0.39550   0.72426   0.80129 
C          C       0.36235   0.76725   0.81265 
C          C       0.32725   0.86127   0.00772 
C          C       0.33751   0.91865   0.04005 
C          C       0.31732   0.97014   0.97639 
C          C       0.28753   0.96367   0.87795 
C          C       0.77743   0.14043   0.67931 
C          C       0.80619   0.15626   0.56388 
C          C       0.79311   0.20207   0.46506 
C          C       0.75411   0.23448   0.48645 
C          C       0.51886   0.16525   0.84395 
C          C       0.56042   0.49385   0.76081 
C          C       0.86880   0.45721   0.53934 
C          C       0.85161   0.13027   0.55559 
C          C       0.57295   0.55232   0.78286 
C          C       0.54088   0.59511   0.80896 
C          C       0.49556   0.58065   0.81282 
C          C       0.48275   0.52224   0.79144 
C          C       0.51493   0.47915   0.76586 
C          C       0.90050   0.44947   0.63643 
C          C       0.93754   0.48802   0.62682 
C          C       0.94353   0.53526   0.52047 
C          C       0.91336   0.54113   0.41992 
C          C       0.87652   0.50248   0.42891 
C          C       0.48787   0.20410   0.89878 
C          C       0.44527   0.18341   0.94589 
C          C       0.43229   0.12379   0.93710 
C          C       0.46273   0.08495   0.88070 
C          C       0.50571   0.10534   0.83532 
C          C       0.85962   0.07091   0.61473 
C          C       0.90308   0.05089   0.63078 
H          H       0.36993   0.81417   0.77640 
H          H       0.34212   0.82172   0.05941 
H          H       0.36050   0.92311   0.11644 
H          H       0.27151   0.00284   0.82785 
H          H       0.25581   0.90239   0.76539 
H          H       0.47499   0.67214   0.84916 
H          H       0.98243   0.61555   0.43056 
H          H       0.69832   0.40501   0.81688 
H          H       0.63980   0.47527   0.87381 
H          H       0.55938   0.41110   0.58107 
H          H       0.61750   0.33951   0.53044 
H          H       0.78422   0.28661   0.70840 
H          H       0.85430   0.33990   0.66020 
H          H       0.78643   0.49395   0.46629 
H          H       0.71700   0.43898   0.50617 
H          H       0.64406   0.28283   0.87598 
H          H       0.56950   0.24567   0.95284 
H          H       0.57297   0.13376   0.63204 
H          H       0.64694   0.17414   0.55291 
H          H       0.71860   0.16229   0.79423 
H          H       0.78643   0.10600   0.75857 
H          H       0.81386   0.21412   0.37343 
H          H       0.74539   0.27149   0.41282 
H          H       0.60764   0.56546   0.77723 
H          H       0.42224   0.21422   0.98843 
H          H       0.45324   0.03871   0.87311 
H          H       0.52877   0.07390   0.79555 
H          H       0.83230   0.04071   0.65330 
H          H       0.90845   0.00620   0.68300 
H          H       0.95910   0.17715   0.48133 
H          H       0.88349   0.21336   0.45827 
H          H       0.01190   0.10411   0.58292 
