data_crystal

_cell_length_a    23.72480
_cell_length_b    23.98230
_cell_length_c    9.02802
_cell_angle_alpha 104.69000
_cell_angle_beta  91.46000
_cell_angle_gamma 90.11000

_space_group_name_Hall 'P 1'
_space_group_name_H-M_alt  'P 1'

loop_
_symmetry_equiv_pos_as_xyz
'x,y,z' 

loop_
_atom_site_label
_atom_site_type_symbol
_atom_site_fract_x
_atom_site_fract_y
_atom_site_fract_z
N          N       0.92994   0.96184   0.10600 
N          N       0.47012   0.99857   0.36328 
N          N       0.33999   0.77687   0.16329 
N          N       0.10270   0.75695   0.00494 
N          N       0.46677   0.56430   0.15668 
N          N       0.99926   0.53522   0.89256 
C          C       0.65791   0.23402   0.09718 
C          C       0.66926   0.18052   0.01205 
C          C       0.71837   0.17199   0.92937 
C          C       0.75766   0.21683   0.92629 
C          C       0.74512   0.27232   0.00210 
C          C       0.69562   0.28070   0.08989 
C          C       0.78140   0.31955   0.99081 
C          C       0.76687   0.37480   0.06211 
C          C       0.72066   0.38236   0.15410 
C          C       0.68449   0.33592   0.16909 
C          C       0.81228   0.20454   0.84023 
C          C       0.84654   0.25879   0.83003 
C          C       0.83457   0.31073   0.90541 
C          C       0.53133   0.45536   0.14464 
C          C       0.56113   0.40322   0.15563 
C          C       0.50535   0.20621   0.19758 
C          C       0.46632   0.16597   0.23564 
C          C       0.48585   0.11352   0.27872 
C          C       0.54484   0.10051   0.27504 
C          C       0.58382   0.14090   0.23796 
C          C       0.94178   0.03781   0.13040 
C          C       0.00322   0.49263   0.96857 
C          C       0.51454   0.56205   0.22937 
C          C       0.44698   0.06181   0.33199 
C          C       0.28042   0.77628   0.11687 
C          C       0.23860   0.80762   0.20263 
C          C       0.18039   0.80229   0.16466 
C          C       0.16287   0.76614   0.03912 
C          C       0.20477   0.73582   0.95196 
C          C       0.26295   0.74140   0.98974 
C          C       0.08306   0.69816   0.96354 
C          C       0.06114   0.80388   0.03768 
C          C       0.36483   0.83079   0.23305 
C          C       0.37227   0.72245   0.15206 
C          C       0.04008   0.68649   0.85779 
C          C       0.01494   0.63164   0.83148 
H          H       0.88667   0.25329   0.77361 
H          H       0.56178   0.29911   0.34663 
H          H       0.93298   0.31716   0.06724 
H          H       0.00472   0.39434   0.09362 
H          H       0.90671   0.48451   0.79678 
H          H       0.83383   0.40882   0.77844 
H          H       0.80949   0.08446   0.78414 
H          H       0.86167   0.01368   0.91114 
H          H       0.95521   0.15329   0.15939 
H          H       0.90142   0.22342   0.03979 
H          H       0.64623   0.45042   0.44711 
H          H       0.55203   0.36499   0.07883 
H          H       0.48939   0.24728   0.16953 
H          H       0.42099   0.17676   0.23675 
H          H       0.56090   0.06033   0.30794 
H          H       0.62912   0.13078   0.24290 
H          H       0.97194   0.05576   0.21397 
H          H       0.03471   0.49271   0.05482 
H          H       0.38840   0.06984   0.34752 
C          C       0.63683   0.34530   0.27755 
C          C       0.59766   0.29393   0.27379 
C          C       0.60624   0.24252   0.19070 
C          C       0.60267   0.40060   0.26511 
C          C       0.56478   0.19500   0.20306 
C          C       0.84969   0.16008   0.90536 
C          C       0.87885   0.35642   0.91662 
C          C       0.92748   0.35296   0.00585 
C          C       0.96837   0.39702   0.02094 
C          C       0.96165   0.44475   0.94543 
C          C       0.91321   0.44779   0.85504 
C          C       0.87187   0.40435   0.84263 
C          C       0.84060   0.10005   0.86724 
C          C       0.87093   0.05953   0.93807 
C          C       0.91242   0.07824   0.04446 
C          C       0.92364   0.13771   0.07713 
C          C       0.89244   0.17799   0.00933 
C          C       0.61429   0.45118   0.36196 
C          C       0.58574   0.50346   0.34858 
C          C       0.03233   0.58751   0.91035 
C          C       0.07806   0.59788   0.01060 
C          C       0.10304   0.65295   0.03707 
C          C       0.07560   0.86184   0.02795 
C          C       0.03856   0.90773   0.08017 
C          C       0.97706   0.89914   0.14142 
C          C       0.96964   0.83850   0.14075 
C          C       0.00651   0.79286   0.08862 
C          C       0.34472   0.66986   0.16576 
C          C       0.37605   0.61788   0.16199 
C          C       0.43554   0.61743   0.14815 
C          C       0.46339   0.66909   0.12959 
C          C       0.43187   0.72101   0.12989 
C          C       0.40396   0.83106   0.34899 
C          C       0.42644   0.88336   0.41891 
C          C       0.40846   0.93669   0.37796 
C          C       0.36942   0.93678   0.26266 
C          C       0.34824   0.88436   0.19009 
H          H       0.63996   0.14467   0.00690 
H          H       0.72534   0.12986   0.86632 
H          H       0.79251   0.41237   0.05149 
H          H       0.71315   0.42509   0.21396 
H          H       0.25093   0.83393   0.30278 
H          H       0.14878   0.82437   0.23638 
H          H       0.19213   0.70777   0.85474 
H          H       0.29471   0.71763   0.92203 
H          H       0.02453   0.72095   0.80116 
H          H       0.98019   0.62386   0.75318 
H          H       0.09345   0.56484   0.07252 
H          H       0.13595   0.66122   0.12011 
H          H       0.11655   0.87155   0.98517 
H          H       0.05149   0.95226   0.07809 
H          H       0.92909   0.82865   0.18566 
H          H       0.99294   0.74892   0.09333 
H          H       0.29896   0.66908   0.18213 
H          H       0.35446   0.57805   0.17540 
H          H       0.50933   0.66898   0.11489 
H          H       0.45407   0.76032   0.11535 
H          H       0.41597   0.79079   0.38765 
H          H       0.45587   0.88234   0.50926 
H          H       0.35477   0.97759   0.23055 
H          H       0.31855   0.88543   0.10039 
C          C       0.54571   0.50732   0.24603 
H          H       0.53429   0.60041   0.28386 
H          H       0.50066   0.44932   0.05878 
H          H       0.59955   0.54007   0.42857 
N          N       0.92994   0.96184   0.60600 
N          N       0.47012   0.99857   0.86328 
N          N       0.33999   0.77687   0.66329 
N          N       0.10270   0.75695   0.50494 
N          N       0.46677   0.56430   0.65668 
N          N       0.99926   0.53522   0.39256 
C          C       0.65791   0.23402   0.59718 
C          C       0.66926   0.18052   0.51205 
C          C       0.71837   0.17199   0.42937 
C          C       0.75766   0.21683   0.42629 
C          C       0.74512   0.27232   0.50210 
C          C       0.69562   0.28070   0.58988 
C          C       0.78140   0.31955   0.49082 
C          C       0.76687   0.37480   0.56210 
C          C       0.72066   0.38236   0.65410 
C          C       0.68449   0.33592   0.66909 
C          C       0.81228   0.20454   0.34023 
C          C       0.84654   0.25879   0.33003 
C          C       0.83457   0.31073   0.40541 
C          C       0.53133   0.45536   0.64464 
C          C       0.56113   0.40322   0.65564 
C          C       0.50535   0.20621   0.69758 
C          C       0.46632   0.16597   0.73564 
C          C       0.48585   0.11352   0.77872 
C          C       0.54484   0.10051   0.77504 
C          C       0.58382   0.14090   0.73796 
C          C       0.94178   0.03781   0.63040 
C          C       0.00322   0.49263   0.46857 
C          C       0.51454   0.56205   0.72937 
C          C       0.44698   0.06181   0.83199 
C          C       0.28042   0.77628   0.61687 
C          C       0.23860   0.80762   0.70263 
C          C       0.18039   0.80229   0.66466 
C          C       0.16287   0.76614   0.53912 
C          C       0.20477   0.73582   0.45195 
C          C       0.26295   0.74140   0.48974 
C          C       0.08306   0.69816   0.46353 
C          C       0.06114   0.80388   0.53768 
C          C       0.36483   0.83079   0.73305 
C          C       0.37227   0.72245   0.65206 
C          C       0.04008   0.68649   0.35779 
C          C       0.01494   0.63164   0.33148 
H          H       0.88667   0.25329   0.27361 
H          H       0.56178   0.29911   0.84663 
H          H       0.93298   0.31716   0.56724 
H          H       0.00472   0.39434   0.59362 
H          H       0.90671   0.48451   0.29678 
H          H       0.83383   0.40882   0.27844 
H          H       0.80949   0.08446   0.28414 
H          H       0.86167   0.01368   0.41114 
H          H       0.95521   0.15329   0.65939 
H          H       0.90142   0.22342   0.53980 
H          H       0.64623   0.45042   0.94712 
H          H       0.55203   0.36499   0.57883 
H          H       0.48939   0.24728   0.66953 
H          H       0.42099   0.17676   0.73675 
H          H       0.56090   0.06033   0.80794 
H          H       0.62912   0.13078   0.74290 
H          H       0.97194   0.05576   0.71397 
H          H       0.03471   0.49271   0.55482 
H          H       0.38840   0.06984   0.84751 
C          C       0.63683   0.34530   0.77755 
C          C       0.59766   0.29393   0.77378 
C          C       0.60624   0.24252   0.69070 
C          C       0.60267   0.40060   0.76511 
C          C       0.56478   0.19500   0.70305 
C          C       0.84969   0.16008   0.40536 
C          C       0.87885   0.35642   0.41663 
C          C       0.92748   0.35296   0.50584 
C          C       0.96837   0.39702   0.52094 
C          C       0.96165   0.44475   0.44543 
C          C       0.91321   0.44779   0.35504 
C          C       0.87187   0.40435   0.34263 
C          C       0.84060   0.10005   0.36724 
C          C       0.87093   0.05953   0.43807 
C          C       0.91242   0.07824   0.54447 
C          C       0.92364   0.13771   0.57713 
C          C       0.89244   0.17799   0.50934 
C          C       0.61429   0.45118   0.86196 
C          C       0.58574   0.50346   0.84858 
C          C       0.03233   0.58751   0.41035 
C          C       0.07806   0.59788   0.51060 
C          C       0.10304   0.65295   0.53707 
C          C       0.07560   0.86184   0.52795 
C          C       0.03856   0.90773   0.58016 
C          C       0.97706   0.89914   0.64142 
C          C       0.96964   0.83850   0.64075 
C          C       0.00651   0.79286   0.58862 
C          C       0.34472   0.66986   0.66576 
C          C       0.37605   0.61788   0.66199 
C          C       0.43554   0.61743   0.64815 
C          C       0.46339   0.66909   0.62959 
C          C       0.43187   0.72101   0.62989 
C          C       0.40396   0.83106   0.84899 
C          C       0.42644   0.88336   0.91891 
C          C       0.40846   0.93669   0.87796 
C          C       0.36942   0.93678   0.76266 
C          C       0.34824   0.88436   0.69009 
H          H       0.63996   0.14467   0.50690 
H          H       0.72534   0.12986   0.36632 
H          H       0.79251   0.41237   0.55149 
H          H       0.71315   0.42509   0.71396 
H          H       0.25093   0.83393   0.80278 
H          H       0.14878   0.82437   0.73638 
H          H       0.19213   0.70777   0.35474 
H          H       0.29471   0.71763   0.42203 
H          H       0.02453   0.72095   0.30116 
H          H       0.98019   0.62386   0.25318 
H          H       0.09345   0.56484   0.57252 
H          H       0.13595   0.66122   0.62010 
H          H       0.11655   0.87155   0.48518 
H          H       0.05149   0.95226   0.57809 
H          H       0.92909   0.82865   0.68566 
H          H       0.99294   0.74892   0.59333 
H          H       0.29896   0.66908   0.68214 
H          H       0.35446   0.57805   0.67540 
H          H       0.50933   0.66898   0.61490 
H          H       0.45407   0.76032   0.61535 
H          H       0.41597   0.79079   0.88765 
H          H       0.45587   0.88234   0.00926 
H          H       0.35477   0.97759   0.73056 
H          H       0.31855   0.88543   0.60038 
C          C       0.54571   0.50732   0.74603 
H          H       0.53429   0.60041   0.78386 
H          H       0.50066   0.44932   0.55877 
H          H       0.59955   0.54007   0.92857 
