data_Py-An_COF
_audit_creation_date              0000-00-00
_audit_creation_method            'LanYouShi'
_symmetry_space_group_name_H-M    'P1'
_cell_length_a                    29.0699997
_cell_length_b                    4.0721998
_cell_length_c                    27.3090000
_cell_angle_alpha                 90.0000000
_cell_angle_beta                  79.9269028
_cell_angle_gamma                 90.0000000
loop_
_atom_site_label
_atom_site_type_symbol
_atom_site_fract_x
_atom_site_fract_y
_atom_site_fract_z
_atom_site_U_iso_or_equiv
_atom_site_adp_type
_atom_site_occupancy
        C1          C  0.8780021  0.3624164  0.5715069    0.00000       Uiso       1.00
        C2          C  0.8689420  0.3691994  0.5223747    0.00000       Uiso       1.00
        C3          C  0.9068344  0.3795424  0.4824874    0.00000       Uiso       1.00
        C4          C  0.9534177  0.3774824  0.4909402    0.00000       Uiso       1.00
        C5          C  0.9621838  0.3737020  0.5405812    0.00000       Uiso       1.00
        C6          C  0.9241667  0.3659662  0.5805949    0.00000       Uiso       1.00
        C7          C  0.0086669  0.3770566  0.5491924    0.00000       Uiso       1.00
        H1          H  0.8510810  0.3584335  0.6010158    0.00000       Uiso       1.00
        H2          H  0.9001738  0.3859616  0.4469343    0.00000       Uiso       1.00
        H3          H  0.9297656  0.3627507  0.6165597    0.00000       Uiso       1.00
        H4          H  0.0149398  0.3777303  0.5849296    0.00000       Uiso       1.00
        N1          N  0.8255649  0.3707761  0.5107241    0.00000       Uiso       1.00
        C8          C  0.7843435  0.2712660  0.5376133    0.00000       Uiso       1.00
        H5          H  0.7839953  0.1599777  0.5712766    0.00000       Uiso       1.00
        C9          C  0.5948089  0.7632138  0.0763255    0.00000       Uiso       1.00
       C10          C  0.5550043  0.7573848  0.1142820    0.00000       Uiso       1.00
       C11          C  0.5103918  0.7798455  0.1011344    0.00000       Uiso       1.00
       C12          C  0.5049454  0.7914386  0.0507543    0.00000       Uiso       1.00
       C13          C  0.5452325  0.7913923  0.0127452    0.00000       Uiso       1.00
       C14          C  0.5900314  0.7816539  0.0260157    0.00000       Uiso       1.00
       C15          C  0.5399243  0.7961938  0.9623525    0.00000       Uiso       1.00
        H6          H  0.6275325  0.7547685  0.0850169    0.00000       Uiso       1.00
        H7          H  0.4816335  0.7809944  0.1287397    0.00000       Uiso       1.00
        H8          H  0.6194344  0.7849903  0.9992297    0.00000       Uiso       1.00
        H9          H  0.5689331  0.7981805  0.9350248    0.00000       Uiso       1.00
        N2          N  0.5565603  0.7268260  0.1633168    0.00000       Uiso       1.00
       C16          C  0.5906664  0.6034186  0.1859576    0.00000       Uiso       1.00
       H10          H  0.6201234  0.5081587  0.1647009    0.00000       Uiso       1.00
       C17          C  0.3904821  0.4630767  0.5804145    0.00000       Uiso       1.00
       C18          C  0.3906438  0.4401191  0.5287261    0.00000       Uiso       1.00
       C19          C  0.4351743  0.4586572  0.4967087    0.00000       Uiso       1.00
       C20          C  0.4776470  0.4633052  0.5164202    0.00000       Uiso       1.00
       C21          C  0.4750656  0.4672544  0.5692213    0.00000       Uiso       1.00
       C22          C  0.4310587  0.4846087  0.6022132    0.00000       Uiso       1.00
       C23          C  0.5177163  0.4532058  0.5871262    0.00000       Uiso       1.00
       C24          C  0.5607702  0.4724197  0.5555055    0.00000       Uiso       1.00
       H11          H  0.3589077  0.4635500  0.6036085    0.00000       Uiso       1.00
       H12          H  0.5187492  0.4280130  0.6240181    0.00000       Uiso       1.00
       H13          H  0.5892668  0.4969785  0.5722280    0.00000       Uiso       1.00
       C25          C  0.4248314  0.5246165  0.6551160    0.00000       Uiso       1.00
       C26          C  0.3890862  0.3567542  0.6878605    0.00000       Uiso       1.00
       C27          C  0.3830546  0.3928973  0.7398432    0.00000       Uiso       1.00
       C28          C  0.4140421  0.5878788  0.7618700    0.00000       Uiso       1.00
       C29          C  0.4493002  0.7609743  0.7299622    0.00000       Uiso       1.00
       C30          C  0.4532305  0.7386307  0.6779684    0.00000       Uiso       1.00
       H14          H  0.3672570  0.1969431  0.6743172    0.00000       Uiso       1.00
       H15          H  0.3565366  0.2666740  0.7614927    0.00000       Uiso       1.00
       H16          H  0.4718846  0.9108343  0.7443748    0.00000       Uiso       1.00
       H17          H  0.4773814  0.8850772  0.6567335    0.00000       Uiso       1.00
       C31          C  0.6533912  0.3948663  0.4871684    0.00000       Uiso       1.00
       C32          C  0.6587562  0.1781915  0.5264311    0.00000       Uiso       1.00
       C33          C  0.7012755  0.1458861  0.5439358    0.00000       Uiso       1.00
       C34          C  0.7418454  0.3102637  0.5201456    0.00000       Uiso       1.00
       C35          C  0.7379999  0.5117237  0.4789575    0.00000       Uiso       1.00
       C36          C  0.6946489  0.5578801  0.4636711    0.00000       Uiso       1.00
       H18          H  0.6314145  0.0360698  0.5428035    0.00000       Uiso       1.00
       H19          H  0.7025353 -0.0062445  0.5735331    0.00000       Uiso       1.00
       H20          H  0.7666324  0.6337261  0.4604120    0.00000       Uiso       1.00
       H21          H  0.6936482  0.7204285  0.4353454    0.00000       Uiso       1.00
       C37          C  0.1219955  0.3624164  0.4284944    0.00000       Uiso       1.00
       C38          C  0.1310555  0.3691994  0.4776266    0.00000       Uiso       1.00
       C39          C  0.0931632  0.3795424  0.5175139    0.00000       Uiso       1.00
       C40          C  0.0465800  0.3774824  0.5090610    0.00000       Uiso       1.00
       C41          C  0.0378138  0.3737020  0.4594201    0.00000       Uiso       1.00
       C42          C  0.0758310  0.3659662  0.4194063    0.00000       Uiso       1.00
       C43          C  0.9913307  0.3770566  0.4508089    0.00000       Uiso       1.00
       H22          H  0.1489166  0.3584335  0.3989855    0.00000       Uiso       1.00
       H23          H  0.0998238  0.3859616  0.5530670    0.00000       Uiso       1.00
       H24          H  0.0702320  0.3627507  0.3834416    0.00000       Uiso       1.00
       H25          H  0.9850578  0.3777303  0.4150717    0.00000       Uiso       1.00
        N3          N  0.1744327  0.3707761  0.4892772    0.00000       Uiso       1.00
       C44          C  0.2156542  0.2712660  0.4623880    0.00000       Uiso       1.00
       H26          H  0.2160023  0.1599777  0.4287247    0.00000       Uiso       1.00
       C45          C  0.4051887  0.7632138  0.9236757    0.00000       Uiso       1.00
       C46          C  0.4449933  0.7573848  0.8857193    0.00000       Uiso       1.00
       C47          C  0.4896058  0.7798455  0.8988669    0.00000       Uiso       1.00
       C48          C  0.4950522  0.7914386  0.9492470    0.00000       Uiso       1.00
       C49          C  0.4547651  0.7913923  0.9872561    0.00000       Uiso       1.00
       C50          C  0.4099661  0.7816539  0.9739856    0.00000       Uiso       1.00
       C51          C  0.4600733  0.7961938  0.0376487    0.00000       Uiso       1.00
       H27          H  0.3724651  0.7547685  0.9149843    0.00000       Uiso       1.00
       H28          H  0.5183641  0.7809944  0.8712616    0.00000       Uiso       1.00
       H29          H  0.3805632  0.7849903  0.0007715    0.00000       Uiso       1.00
       H30          H  0.4310645  0.7981805  0.0649764    0.00000       Uiso       1.00
        N4          N  0.4434373  0.7268260  0.8366844    0.00000       Uiso       1.00
       C52          C  0.4093312  0.6034186  0.8140436    0.00000       Uiso       1.00
       H31          H  0.3798742  0.5081587  0.8353004    0.00000       Uiso       1.00
       C53          C  0.6095154  0.4630767  0.4195867    0.00000       Uiso       1.00
       C54          C  0.6093538  0.4401191  0.4712752    0.00000       Uiso       1.00
       C55          C  0.5648232  0.4586572  0.5032926    0.00000       Uiso       1.00
       C56          C  0.5223506  0.4633052  0.4835810    0.00000       Uiso       1.00
       C57          C  0.5249319  0.4672544  0.4307801    0.00000       Uiso       1.00
       C58          C  0.5689389  0.4846087  0.3977880    0.00000       Uiso       1.00
       C59          C  0.4822813  0.4532058  0.4128751    0.00000       Uiso       1.00
       C60          C  0.4392274  0.4724197  0.4444958    0.00000       Uiso       1.00
       H32          H  0.6410899  0.4635500  0.3963928    0.00000       Uiso       1.00
       H33          H  0.4812484  0.4280130  0.3759832    0.00000       Uiso       1.00
       H34          H  0.4107308  0.4969785  0.4277733    0.00000       Uiso       1.00
       C61          C  0.5751662  0.5246165  0.3448853    0.00000       Uiso       1.00
       C62          C  0.6109114  0.3567542  0.3121407    0.00000       Uiso       1.00
       C63          C  0.6169430  0.3928973  0.2601580    0.00000       Uiso       1.00
       C64          C  0.5859554  0.5878788  0.2381313    0.00000       Uiso       1.00
       C65          C  0.5506974  0.7609743  0.2700390    0.00000       Uiso       1.00
       C66          C  0.5467671  0.7386307  0.3220329    0.00000       Uiso       1.00
       H35          H  0.6327406  0.1969431  0.3256840    0.00000       Uiso       1.00
       H36          H  0.6434610  0.2666740  0.2385086    0.00000       Uiso       1.00
       H37          H  0.5281130  0.9108343  0.2556265    0.00000       Uiso       1.00
       H38          H  0.5226161  0.8850772  0.3432677    0.00000       Uiso       1.00
       C67          C  0.3466064  0.3948663  0.5128329    0.00000       Uiso       1.00
       C68          C  0.3412414  0.1781915  0.4735701    0.00000       Uiso       1.00
       C69          C  0.2987221  0.1458861  0.4560655    0.00000       Uiso       1.00
       C70          C  0.2581522  0.3102637  0.4798556    0.00000       Uiso       1.00
       C71          C  0.2619977  0.5117237  0.5210437    0.00000       Uiso       1.00
       C72          C  0.3053487  0.5578801  0.5363302    0.00000       Uiso       1.00
       H39          H  0.3685831  0.0360698  0.4571978    0.00000       Uiso       1.00
       H40          H  0.2974623 -0.0062445  0.4264681    0.00000       Uiso       1.00
       H41          H  0.2333651  0.6337261  0.5395892    0.00000       Uiso       1.00
       H42          H  0.3063494  0.7204285  0.5646558    0.00000       Uiso       1.00
