data_crystal

_cell_length_a    43.05480
_cell_length_b    43.05480
_cell_length_c    7.72600
_cell_angle_alpha 90.00000
_cell_angle_beta  90.00000
_cell_angle_gamma 120.00000

_space_group_name_Hall 'P 1'
_space_group_name_H-M_alt  'P 1'

loop_
_symmetry_equiv_pos_as_xyz
'x,y,z' 

loop_
_atom_site_label
_atom_site_type_symbol
_atom_site_fract_x
_atom_site_fract_y
_atom_site_fract_z
N          N       0.31289   0.63176   0.25000 
N          N       0.36824   0.68113   0.25000 
N          N       0.31887   0.68711   0.25000 
N          N       0.68711   0.36824   0.25000 
N          N       0.63176   0.31887   0.25000 
N          N       0.68113   0.31289   0.25000 
C          C       0.29824   0.65213   0.25000 
C          C       0.34787   0.64611   0.25000 
C          C       0.35389   0.70176   0.25000 
C          C       0.70176   0.34787   0.25000 
C          C       0.65213   0.35389   0.25000 
C          C       0.64611   0.29824   0.25000 
C          C       0.36360   0.62388   0.25000 
C          C       0.37612   0.73972   0.25000 
C          C       0.26028   0.63640   0.25000 
C          C       0.63640   0.37612   0.25000 
C          C       0.62388   0.26028   0.25000 
C          C       0.73972   0.36360   0.25000 
C          C       0.34262   0.58768   0.25000 
C          C       0.41232   0.75494   0.25000 
C          C       0.24506   0.65738   0.25000 
C          C       0.65738   0.41232   0.25000 
C          C       0.58768   0.24506   0.25000 
C          C       0.75494   0.34262   0.25000 
C          C       0.35754   0.56658   0.25000 
C          C       0.43342   0.79096   0.25000 
C          C       0.20904   0.64246   0.25000 
C          C       0.64246   0.43342   0.25000 
C          C       0.56658   0.20904   0.25000 
C          C       0.79096   0.35754   0.25000 
C          C       0.39356   0.58141   0.25000 
C          C       0.41859   0.81215   0.25000 
C          C       0.18785   0.60644   0.25000 
C          C       0.60644   0.41859   0.25000 
C          C       0.58141   0.18785   0.25000 
C          C       0.81215   0.39356   0.25000 
C          C       0.41465   0.61758   0.25000 
C          C       0.38242   0.79707   0.25000 
C          C       0.20293   0.58535   0.25000 
C          C       0.58535   0.38242   0.25000 
C          C       0.61758   0.20293   0.25000 
C          C       0.79707   0.41465   0.25000 
C          C       0.39973   0.63867   0.25000 
C          C       0.36133   0.76106   0.25000 
C          C       0.23894   0.60027   0.25000 
C          C       0.60027   0.36133   0.25000 
C          C       0.63867   0.23894   0.25000 
C          C       0.76106   0.39973   0.25000 
C          C       0.40855   0.55870   0.25000 
C          C       0.44130   0.84985   0.25000 
C          C       0.15015   0.59145   0.25000 
C          C       0.59145   0.44130   0.25000 
C          C       0.55870   0.15015   0.25000 
C          C       0.84985   0.40855   0.25000 
N          N       0.44181   0.57121   0.25000 
N          N       0.42879   0.87060   0.25000 
N          N       0.12940   0.55819   0.25000 
N          N       0.55819   0.42879   0.25000 
N          N       0.57121   0.12940   0.25000 
N          N       0.87060   0.44181   0.25000 
C          C       0.45742   0.54992   0.25000 
C          C       0.45008   0.90750   0.25000 
C          C       0.09250   0.54258   0.25000 
C          C       0.54258   0.45008   0.25000 
C          C       0.54992   0.09250   0.25000 
C          C       0.90750   0.45742   0.25000 
C          C       0.43752   0.51388   0.25000 
C          C       0.48612   0.92364   0.25000 
C          C       0.07636   0.56248   0.25000 
C          C       0.56248   0.48612   0.25000 
C          C       0.51388   0.07636   0.25000 
C          C       0.92364   0.43752   0.25000 
C          C       0.45287   0.49314   0.25000 
C          C       0.50686   0.95973   0.25000 
C          C       0.04027   0.54713   0.25000 
C          C       0.54713   0.50686   0.25000 
C          C       0.49314   0.04027   0.25000 
C          C       0.95973   0.45287   0.25000 
C          C       0.49007   0.50935   0.25000 
C          C       0.49065   0.98072   0.25000 
C          C       0.01928   0.50993   0.25000 
C          C       0.50993   0.49065   0.25000 
C          C       0.50935   0.01928   0.25000 
C          C       0.98072   0.49007   0.25000 
C          C       0.50897   0.54540   0.25000 
C          C       0.45460   0.96357   0.25000 
C          C       0.03643   0.49103   0.25000 
C          C       0.49103   0.45460   0.25000 
C          C       0.54540   0.03643   0.25000 
C          C       0.96357   0.50897   0.25000 
C          C       0.49329   0.56548   0.25000 
C          C       0.43452   0.92781   0.25000 
C          C       0.07219   0.50671   0.25000 
C          C       0.50671   0.43452   0.25000 
C          C       0.56548   0.07219   0.25000 
C          C       0.92781   0.49329   0.25000 
C          C       0.42801   0.45548   0.25000 
C          C       0.54452   0.97253   0.25000 
C          C       0.02747   0.57199   0.25000 
C          C       0.57199   0.54452   0.25000 
C          C       0.45548   0.02747   0.25000 
C          C       0.97253   0.42801   0.25000 
H          H       0.31315   0.57529   0.25000 
H          H       0.42471   0.73786   0.25000 
H          H       0.26214   0.68685   0.25000 
H          H       0.68685   0.42471   0.25000 
H          H       0.57529   0.26214   0.25000 
H          H       0.73786   0.31315   0.25000 
H          H       0.34029   0.53713   0.25000 
H          H       0.46287   0.80316   0.25000 
H          H       0.19684   0.65971   0.25000 
H          H       0.65971   0.46287   0.25000 
H          H       0.53713   0.19684   0.25000 
H          H       0.80316   0.34029   0.25000 
H          H       0.41698   0.66811   0.25000 
H          H       0.33189   0.74887   0.25000 
H          H       0.25113   0.58302   0.25000 
H          H       0.58302   0.33189   0.25000 
H          H       0.66811   0.25113   0.25000 
H          H       0.74887   0.41698   0.25000 
H          H       0.44411   0.62985   0.25000 
H          H       0.37015   0.81426   0.25000 
H          H       0.18574   0.55589   0.25000 
H          H       0.55589   0.37015   0.25000 
H          H       0.62985   0.18574   0.25000 
H          H       0.81426   0.44411   0.25000 
H          H       0.39076   0.52933   0.25000 
H          H       0.47067   0.86143   0.25000 
H          H       0.13857   0.60924   0.25000 
H          H       0.60924   0.47067   0.25000 
H          H       0.52933   0.13857   0.25000 
H          H       0.86143   0.39076   0.25000 
H          H       0.40798   0.50065   0.25000 
H          H       0.49935   0.90733   0.25000 
H          H       0.09267   0.59202   0.25000 
H          H       0.59202   0.49935   0.25000 
H          H       0.50065   0.09267   0.25000 
H          H       0.90733   0.40798   0.25000 
H          H       0.50987   0.59500   0.25000 
H          H       0.40500   0.91487   0.25000 
H          H       0.08513   0.49013   0.25000 
H          H       0.49013   0.40500   0.25000 
H          H       0.59500   0.08513   0.25000 
H          H       0.91487   0.50987   0.25000 
H          H       0.53854   0.55948   0.25000 
H          H       0.44052   0.97906   0.25000 
H          H       0.02094   0.46146   0.25000 
H          H       0.46146   0.44052   0.25000 
H          H       0.55948   0.02094   0.25000 
H          H       0.97906   0.53854   0.25000 
H          H       0.41237   0.41147   0.25000 
H          H       0.58853   0.00090   0.25000 
H          H       0.99910   0.58763   0.25000 
H          H       0.58763   0.58853   0.25000 
H          H       0.41147   0.99910   0.25000 
H          H       0.00090   0.41237   0.25000 
O          O       0.39882   0.44298   0.25000 
O          O       0.55702   0.95584   0.25000 
O          O       0.04416   0.60118   0.25000 
O          O       0.60118   0.55702   0.25000 
O          O       0.44298   0.04416   0.25000 
O          O       0.95584   0.39882   0.25000 
O          O       0.43382   0.43583   0.25000 
O          O       0.56417   0.99799   0.25000 
O          O       0.00201   0.56618   0.25000 
O          O       0.56618   0.56417   0.25000 
O          O       0.43583   0.00201   0.25000 
O          O       0.99799   0.43382   0.25000 
N          N       0.31289   0.63176   0.75000 
N          N       0.36824   0.68113   0.75000 
N          N       0.31887   0.68711   0.75000 
N          N       0.68711   0.36824   0.75000 
N          N       0.63176   0.31887   0.75000 
N          N       0.68113   0.31289   0.75000 
C          C       0.29824   0.65213   0.75000 
C          C       0.34787   0.64611   0.75000 
C          C       0.35389   0.70176   0.75000 
C          C       0.70176   0.34787   0.75000 
C          C       0.65213   0.35389   0.75000 
C          C       0.64611   0.29824   0.75000 
C          C       0.36360   0.62388   0.75000 
C          C       0.37612   0.73972   0.75000 
C          C       0.26028   0.63640   0.75000 
C          C       0.63640   0.37612   0.75000 
C          C       0.62388   0.26028   0.75000 
C          C       0.73972   0.36360   0.75000 
C          C       0.34262   0.58768   0.75000 
C          C       0.41232   0.75494   0.75000 
C          C       0.24506   0.65738   0.75000 
C          C       0.65738   0.41232   0.75000 
C          C       0.58768   0.24506   0.75000 
C          C       0.75494   0.34262   0.75000 
C          C       0.35754   0.56658   0.75000 
C          C       0.43342   0.79096   0.75000 
C          C       0.20904   0.64246   0.75000 
C          C       0.64246   0.43342   0.75000 
C          C       0.56658   0.20904   0.75000 
C          C       0.79096   0.35754   0.75000 
C          C       0.39356   0.58141   0.75000 
C          C       0.41859   0.81215   0.75000 
C          C       0.18785   0.60644   0.75000 
C          C       0.60644   0.41859   0.75000 
C          C       0.58141   0.18785   0.75000 
C          C       0.81215   0.39356   0.75000 
C          C       0.41465   0.61758   0.75000 
C          C       0.38242   0.79707   0.75000 
C          C       0.20293   0.58535   0.75000 
C          C       0.58535   0.38242   0.75000 
C          C       0.61758   0.20293   0.75000 
C          C       0.79707   0.41465   0.75000 
C          C       0.39973   0.63867   0.75000 
C          C       0.36133   0.76106   0.75000 
C          C       0.23894   0.60027   0.75000 
C          C       0.60027   0.36133   0.75000 
C          C       0.63867   0.23894   0.75000 
C          C       0.76106   0.39973   0.75000 
C          C       0.40855   0.55870   0.75000 
C          C       0.44130   0.84985   0.75000 
C          C       0.15015   0.59145   0.75000 
C          C       0.59145   0.44130   0.75000 
C          C       0.55870   0.15015   0.75000 
C          C       0.84985   0.40855   0.75000 
N          N       0.44181   0.57121   0.75000 
N          N       0.42879   0.87060   0.75000 
N          N       0.12940   0.55819   0.75000 
N          N       0.55819   0.42879   0.75000 
N          N       0.57121   0.12940   0.75000 
N          N       0.87060   0.44181   0.75000 
C          C       0.45742   0.54992   0.75000 
C          C       0.45008   0.90750   0.75000 
C          C       0.09250   0.54258   0.75000 
C          C       0.54258   0.45008   0.75000 
C          C       0.54992   0.09250   0.75000 
C          C       0.90750   0.45742   0.75000 
C          C       0.43752   0.51388   0.75000 
C          C       0.48612   0.92364   0.75000 
C          C       0.07636   0.56248   0.75000 
C          C       0.56248   0.48612   0.75000 
C          C       0.51388   0.07636   0.75000 
C          C       0.92364   0.43752   0.75000 
C          C       0.45287   0.49314   0.75000 
C          C       0.50686   0.95973   0.75000 
C          C       0.04027   0.54713   0.75000 
C          C       0.54713   0.50686   0.75000 
C          C       0.49314   0.04027   0.75000 
C          C       0.95973   0.45287   0.75000 
C          C       0.49007   0.50935   0.75000 
C          C       0.49065   0.98072   0.75000 
C          C       0.01928   0.50993   0.75000 
C          C       0.50993   0.49065   0.75000 
C          C       0.50935   0.01928   0.75000 
C          C       0.98072   0.49007   0.75000 
C          C       0.50897   0.54540   0.75000 
C          C       0.45460   0.96357   0.75000 
C          C       0.03643   0.49103   0.75000 
C          C       0.49103   0.45460   0.75000 
C          C       0.54540   0.03643   0.75000 
C          C       0.96357   0.50897   0.75000 
C          C       0.49329   0.56548   0.75000 
C          C       0.43452   0.92781   0.75000 
C          C       0.07219   0.50671   0.75000 
C          C       0.50671   0.43452   0.75000 
C          C       0.56548   0.07219   0.75000 
C          C       0.92781   0.49329   0.75000 
C          C       0.42801   0.45548   0.75000 
C          C       0.54452   0.97253   0.75000 
C          C       0.02747   0.57199   0.75000 
C          C       0.57199   0.54452   0.75000 
C          C       0.45548   0.02747   0.75000 
C          C       0.97253   0.42801   0.75000 
H          H       0.31315   0.57529   0.75000 
H          H       0.42471   0.73786   0.75000 
H          H       0.26214   0.68685   0.75000 
H          H       0.68685   0.42471   0.75000 
H          H       0.57529   0.26214   0.75000 
H          H       0.73786   0.31315   0.75000 
H          H       0.34029   0.53713   0.75000 
H          H       0.46287   0.80316   0.75000 
H          H       0.19684   0.65971   0.75000 
H          H       0.65971   0.46287   0.75000 
H          H       0.53713   0.19684   0.75000 
H          H       0.80316   0.34029   0.75000 
H          H       0.41698   0.66811   0.75000 
H          H       0.33189   0.74887   0.75000 
H          H       0.25113   0.58302   0.75000 
H          H       0.58302   0.33189   0.75000 
H          H       0.66811   0.25113   0.75000 
H          H       0.74887   0.41698   0.75000 
H          H       0.44411   0.62985   0.75000 
H          H       0.37015   0.81426   0.75000 
H          H       0.18574   0.55589   0.75000 
H          H       0.55589   0.37015   0.75000 
H          H       0.62985   0.18574   0.75000 
H          H       0.81426   0.44411   0.75000 
H          H       0.39076   0.52933   0.75000 
H          H       0.47067   0.86143   0.75000 
H          H       0.13857   0.60924   0.75000 
H          H       0.60924   0.47067   0.75000 
H          H       0.52933   0.13857   0.75000 
H          H       0.86143   0.39076   0.75000 
H          H       0.40798   0.50065   0.75000 
H          H       0.49935   0.90733   0.75000 
H          H       0.09267   0.59202   0.75000 
H          H       0.59202   0.49935   0.75000 
H          H       0.50065   0.09267   0.75000 
H          H       0.90733   0.40798   0.75000 
H          H       0.50987   0.59500   0.75000 
H          H       0.40500   0.91487   0.75000 
H          H       0.08513   0.49013   0.75000 
H          H       0.49013   0.40500   0.75000 
H          H       0.59500   0.08513   0.75000 
H          H       0.91487   0.50987   0.75000 
H          H       0.53854   0.55948   0.75000 
H          H       0.44052   0.97906   0.75000 
H          H       0.02094   0.46146   0.75000 
H          H       0.46146   0.44052   0.75000 
H          H       0.55948   0.02094   0.75000 
H          H       0.97906   0.53854   0.75000 
H          H       0.41237   0.41147   0.75000 
H          H       0.58853   0.00090   0.75000 
H          H       0.99910   0.58763   0.75000 
H          H       0.58763   0.58853   0.75000 
H          H       0.41147   0.99910   0.75000 
H          H       0.00090   0.41237   0.75000 
O          O       0.39882   0.44298   0.75000 
O          O       0.55702   0.95584   0.75000 
O          O       0.04416   0.60118   0.75000 
O          O       0.60118   0.55702   0.75000 
O          O       0.44298   0.04416   0.75000 
O          O       0.95584   0.39882   0.75000 
O          O       0.43382   0.43583   0.75000 
O          O       0.56417   0.99799   0.75000 
O          O       0.00201   0.56618   0.75000 
O          O       0.56618   0.56417   0.75000 
O          O       0.43583   0.00201   0.75000 
O          O       0.99799   0.43382   0.75000 
