data_crystal
 
_cell_length_a    30.11000
_cell_length_b    30.11000
_cell_length_c    7.24000
_cell_angle_alpha 90.00000
_cell_angle_beta  90.00000
_cell_angle_gamma 120.00000
 
_symmetry_space_group_name_Hall 'P 1'
_symmetry_space_group_name_H-M  'P 1'
 
loop_
_symmetry_equiv_pos_as_xyz
 'x,y,z' 
 
loop_
_atom_site_label
_atom_site_type_symbol
_atom_site_fract_x
_atom_site_fract_y
_atom_site_fract_z
C          C       0.35525   0.63496   0.25000 
C          C       0.36504   0.72029   0.25000 
C          C       0.27971   0.64475   0.25000 
C          C       0.30173   0.61376   0.25000 
C          C       0.38624   0.68797   0.25000 
C          C       0.31203   0.69827   0.25000 
O          O       0.34108   0.54967   0.25000 
O          O       0.45033   0.79141   0.25000 
O          O       0.20859   0.65892   0.25000 
N          N       0.42510   0.61262   0.25000 
N          N       0.38738   0.81248   0.25000 
N          N       0.18752   0.57490   0.25000 
C          C       0.37320   0.59574   0.25000 
C          C       0.40426   0.77746   0.25000 
C          C       0.22254   0.62680   0.25000 
C          C       0.50177   0.60687   0.25000 
C          C       0.39313   0.89490   0.25000 
C          C       0.10510   0.49823   0.25000 
C          C       0.52824   0.57960   0.25000 
C          C       0.42040   0.94864   0.25000 
C          C       0.05136   0.47176   0.25000 
C          C       0.50053   0.52581   0.25000 
C          C       0.47419   0.97472   0.25000 
C          C       0.02528   0.49947   0.25000 
C          C       0.44729   0.50131   0.25000 
C          C       0.49869   0.94598   0.25000 
C          C       0.05402   0.55271   0.25000 
C          C       0.42048   0.52821   0.25000 
C          C       0.47179   0.89227   0.25000 
C          C       0.10773   0.57952   0.25000 
C          C       0.44841   0.58160   0.25000 
C          C       0.41840   0.86681   0.25000 
C          C       0.13319   0.55159   0.25000 
C          C       0.64778   0.36776   0.25000 
C          C       0.63224   0.28002   0.25000 
C          C       0.71998   0.35222   0.25000 
C          C       0.70090   0.38597   0.25000 
C          C       0.61403   0.31493   0.25000 
C          C       0.68507   0.29910   0.25000 
C          C       0.66166   0.45805   0.25000 
C          C       0.54195   0.20361   0.25000 
C          C       0.79639   0.33834   0.25000 
C          C       0.64272   0.49201   0.25000 
C          C       0.50799   0.15071   0.25000 
C          C       0.84929   0.35728   0.25000 
C          C       0.59058   0.47478   0.25000 
C          C       0.52522   0.11580   0.25000 
C          C       0.88420   0.40942   0.25000 
C          C       0.55719   0.42208   0.25000 
C          C       0.57792   0.13511   0.25000 
C          C       0.86489   0.44281   0.25000 
C          C       0.57577   0.38778   0.25000 
C          C       0.61222   0.18799   0.25000 
C          C       0.81201   0.42423   0.25000 
C          C       0.62818   0.40486   0.25000 
C          C       0.59514   0.22332   0.25000 
C          C       0.77668   0.37182   0.25000 
N          N       0.52180   0.49311   0.25000 
N          N       0.50689   0.02869   0.25000 
N          N       0.97131   0.47820   0.25000 
C          C       0.57130   0.51113   0.25000 
C          C       0.48887   0.06017   0.25000 
C          C       0.93983   0.42870   0.25000 
H          H       0.27787   0.57206   0.25000 
H          H       0.42794   0.70581   0.25000 
H          H       0.29419   0.72213   0.25000 
H          H       0.45091   0.65190   0.25000 
H          H       0.34810   0.79901   0.25000 
H          H       0.20099   0.54909   0.25000 
H          H       0.52331   0.64812   0.25000 
H          H       0.35188   0.87519   0.25000 
H          H       0.12481   0.47669   0.25000 
H          H       0.56901   0.60037   0.25000 
H          H       0.39963   0.96864   0.25000 
H          H       0.03136   0.43099   0.25000 
H          H       0.42572   0.45999   0.25000 
H          H       0.54001   0.96573   0.25000 
H          H       0.03427   0.57428   0.25000 
H          H       0.37957   0.50754   0.25000 
H          H       0.49246   0.87203   0.25000 
H          H       0.12797   0.62043   0.25000 
H          H       0.72681   0.42647   0.25000 
H          H       0.57353   0.30034   0.25000 
H          H       0.69966   0.27319   0.25000 
H          H       0.70243   0.47445   0.25000 
H          H       0.52555   0.22798   0.25000 
H          H       0.77202   0.29757   0.25000 
H          H       0.66979   0.53273   0.25000 
H          H       0.46727   0.13706   0.25000 
H          H       0.86294   0.33021   0.25000 
H          H       0.51648   0.40768   0.25000 
H          H       0.59232   0.10880   0.25000 
H          H       0.89120   0.48352   0.25000 
H          H       0.54788   0.34761   0.25000 
H          H       0.65239   0.20027   0.25000 
H          H       0.79973   0.45212   0.25000 
H          H       0.60080   0.55286   0.25000 
H          H       0.44714   0.04794   0.25000 
H          H       0.95206   0.39920   0.25000 
C          C       0.35525   0.63496   0.75000 
C          C       0.36504   0.72029   0.75000 
C          C       0.27971   0.64475   0.75000 
C          C       0.30173   0.61376   0.75000 
C          C       0.38624   0.68797   0.75000 
C          C       0.31203   0.69827   0.75000 
O          O       0.34108   0.54967   0.75000 
O          O       0.45033   0.79141   0.75000 
O          O       0.20859   0.65892   0.75000 
N          N       0.42510   0.61262   0.75000 
N          N       0.38738   0.81248   0.75000 
N          N       0.18752   0.57490   0.75000 
C          C       0.37320   0.59574   0.75000 
C          C       0.40426   0.77746   0.75000 
C          C       0.22254   0.62680   0.75000 
C          C       0.50177   0.60687   0.75000 
C          C       0.39313   0.89490   0.75000 
C          C       0.10510   0.49823   0.75000 
C          C       0.52824   0.57960   0.75000 
C          C       0.42040   0.94864   0.75000 
C          C       0.05136   0.47176   0.75000 
C          C       0.50053   0.52581   0.75000 
C          C       0.47419   0.97472   0.75000 
C          C       0.02528   0.49947   0.75000 
C          C       0.44729   0.50131   0.75000 
C          C       0.49869   0.94598   0.75000 
C          C       0.05402   0.55271   0.75000 
C          C       0.42048   0.52821   0.75000 
C          C       0.47179   0.89227   0.75000 
C          C       0.10773   0.57952   0.75000 
C          C       0.44841   0.58160   0.75000 
C          C       0.41840   0.86681   0.75000 
C          C       0.13319   0.55159   0.75000 
C          C       0.64778   0.36776   0.75000 
C          C       0.63224   0.28002   0.75000 
C          C       0.71998   0.35222   0.75000 
C          C       0.70090   0.38597   0.75000 
C          C       0.61403   0.31493   0.75000 
C          C       0.68507   0.29910   0.75000 
C          C       0.66166   0.45805   0.75000 
C          C       0.54195   0.20361   0.75000 
C          C       0.79639   0.33834   0.75000 
C          C       0.64272   0.49201   0.75000 
C          C       0.50799   0.15071   0.75000 
C          C       0.84929   0.35728   0.75000 
C          C       0.59058   0.47478   0.75000 
C          C       0.52522   0.11580   0.75000 
C          C       0.88420   0.40942   0.75000 
C          C       0.55719   0.42208   0.75000 
C          C       0.57792   0.13511   0.75000 
C          C       0.86489   0.44281   0.75000 
C          C       0.57577   0.38778   0.75000 
C          C       0.61222   0.18799   0.75000 
C          C       0.81201   0.42423   0.75000 
C          C       0.62818   0.40486   0.75000 
C          C       0.59514   0.22332   0.75000 
C          C       0.77668   0.37182   0.75000 
N          N       0.52180   0.49311   0.75000 
N          N       0.50689   0.02869   0.75000 
N          N       0.97131   0.47820   0.75000 
C          C       0.57130   0.51113   0.75000 
C          C       0.48887   0.06017   0.75000 
C          C       0.93983   0.42870   0.75000 
H          H       0.27787   0.57206   0.75000 
H          H       0.42794   0.70581   0.75000 
H          H       0.29419   0.72213   0.75000 
H          H       0.45091   0.65190   0.75000 
H          H       0.34810   0.79901   0.75000 
H          H       0.20099   0.54909   0.75000 
H          H       0.52331   0.64812   0.75000 
H          H       0.35188   0.87519   0.75000 
H          H       0.12481   0.47669   0.75000 
H          H       0.56901   0.60037   0.75000 
H          H       0.39963   0.96864   0.75000 
H          H       0.03136   0.43099   0.75000 
H          H       0.42572   0.45999   0.75000 
H          H       0.54001   0.96573   0.75000 
H          H       0.03427   0.57428   0.75000 
H          H       0.37957   0.50754   0.75000 
H          H       0.49246   0.87203   0.75000 
H          H       0.12797   0.62043   0.75000 
H          H       0.72681   0.42647   0.75000 
H          H       0.57353   0.30034   0.75000 
H          H       0.69966   0.27319   0.75000 
H          H       0.70243   0.47445   0.75000 
H          H       0.52555   0.22798   0.75000 
H          H       0.77202   0.29757   0.75000 
H          H       0.66979   0.53273   0.75000 
H          H       0.46727   0.13706   0.75000 
H          H       0.86294   0.33021   0.75000 
H          H       0.51648   0.40768   0.75000 
H          H       0.59232   0.10880   0.75000 
H          H       0.89120   0.48352   0.75000 
H          H       0.54788   0.34761   0.75000 
H          H       0.65239   0.20027   0.75000 
H          H       0.79973   0.45212   0.75000 
H          H       0.60080   0.55286   0.75000 
H          H       0.44714   0.04794   0.75000 
H          H       0.95206   0.39920   0.75000 
