data_crystal

_cell_length_a    45.52000
_cell_length_b    45.52000
_cell_length_c    7.36000
_cell_angle_alpha 90.00000
_cell_angle_beta  90.00000
_cell_angle_gamma 120.00000

_space_group_name_Hall 'P 1'
_space_group_name_H-M_alt  'P 1'

loop_
_symmetry_equiv_pos_as_xyz
'x,y,z' 

loop_
_atom_site_label
_atom_site_type_symbol
_atom_site_fract_x
_atom_site_fract_y
_atom_site_fract_z
C          C       0.35623   0.70172   0.25000 
C          C       0.29828   0.65451   0.25000 
C          C       0.34549   0.64377   0.25000 
C          C       0.64377   0.29828   0.25000 
C          C       0.70172   0.34549   0.25000 
C          C       0.65451   0.35623   0.25000 
C          C       0.36791   0.67851   0.25000 
C          C       0.32149   0.68940   0.25000 
C          C       0.31060   0.63209   0.25000 
C          C       0.63209   0.32149   0.25000 
C          C       0.67851   0.31060   0.25000 
C          C       0.68940   0.36791   0.25000 
O          O       0.33238   0.58597   0.25000 
O          O       0.41403   0.74641   0.25000 
O          O       0.25359   0.66762   0.25000 
O          O       0.66762   0.41403   0.25000 
O          O       0.58597   0.25359   0.25000 
O          O       0.74641   0.33238   0.25000 
N          N       0.38944   0.62528   0.25000 
N          N       0.37472   0.76416   0.25000 
N          N       0.23584   0.61056   0.25000 
N          N       0.61056   0.37472   0.25000 
N          N       0.62528   0.23584   0.25000 
N          N       0.76416   0.38944   0.25000 
C          C       0.35532   0.61604   0.25000 
C          C       0.38396   0.73928   0.25000 
C          C       0.26072   0.64468   0.25000 
C          C       0.64468   0.38396   0.25000 
C          C       0.61604   0.26072   0.25000 
C          C       0.73928   0.35532   0.25000 
C          C       0.43798   0.61793   0.25000 
C          C       0.38207   0.82005   0.25000 
C          C       0.17995   0.56202   0.25000 
C          C       0.56202   0.38207   0.25000 
C          C       0.61793   0.17995   0.25000 
C          C       0.82005   0.43798   0.25000 
C          C       0.45362   0.59817   0.25000 
C          C       0.40183   0.85545   0.25000 
C          C       0.14455   0.54638   0.25000 
C          C       0.54638   0.40183   0.25000 
C          C       0.59817   0.14455   0.25000 
C          C       0.85545   0.45362   0.25000 
C          C       0.43396   0.56292   0.25000 
C          C       0.43708   0.87104   0.25000 
C          C       0.12896   0.56604   0.25000 
C          C       0.56604   0.43708   0.25000 
C          C       0.56292   0.12896   0.25000 
C          C       0.87104   0.43396   0.25000 
C          C       0.39875   0.54831   0.25000 
C          C       0.45169   0.85044   0.25000 
C          C       0.14956   0.60125   0.25000 
C          C       0.60125   0.45169   0.25000 
C          C       0.54831   0.14956   0.25000 
C          C       0.85044   0.39875   0.25000 
C          C       0.38285   0.56780   0.25000 
C          C       0.43220   0.81505   0.25000 
C          C       0.18495   0.61715   0.25000 
C          C       0.61715   0.43220   0.25000 
C          C       0.56780   0.18495   0.25000 
C          C       0.81505   0.38285   0.25000 
C          C       0.40279   0.60310   0.25000 
C          C       0.39690   0.79969   0.25000 
C          C       0.20031   0.59721   0.25000 
C          C       0.59721   0.39690   0.25000 
C          C       0.60310   0.20031   0.25000 
C          C       0.79969   0.40279   0.25000 
C          C       0.47837   0.54943   0.25000 
C          C       0.45057   0.92894   0.25000 
C          C       0.07106   0.52163   0.25000 
C          C       0.52163   0.45057   0.25000 
C          C       0.54943   0.07106   0.25000 
C          C       0.92894   0.47837   0.25000 
N          N       0.44588   0.53979   0.25000 
N          N       0.46021   0.90609   0.25000 
N          N       0.09391   0.55412   0.25000 
N          N       0.55412   0.46021   0.25000 
N          N       0.53979   0.09391   0.25000 
N          N       0.90609   0.44588   0.25000 
C          C       0.52364   0.53413   0.25000 
C          C       0.46587   0.98951   0.25000 
C          C       0.01049   0.47636   0.25000 
C          C       0.47636   0.46587   0.25000 
C          C       0.53413   0.01049   0.25000 
C          C       0.98951   0.52364   0.25000 
C          C       0.46571   0.48950   0.25000 
C          C       0.51050   0.97621   0.25000 
C          C       0.02379   0.53429   0.25000 
C          C       0.53429   0.51050   0.25000 
C          C       0.48950   0.02379   0.25000 
C          C       0.97621   0.46571   0.25000 
C          C       0.48919   0.52424   0.25000 
C          C       0.47576   0.96495   0.25000 
C          C       0.03505   0.51081   0.25000 
C          C       0.51081   0.47576   0.25000 
C          C       0.52424   0.03505   0.25000 
C          C       0.96495   0.48919   0.25000 
H          H       0.39523   0.68841   0.25000 
H          H       0.31159   0.70682   0.25000 
H          H       0.29318   0.60477   0.25000 
H          H       0.60477   0.31159   0.25000 
H          H       0.68841   0.29318   0.25000 
H          H       0.70682   0.39523   0.25000 
H          H       0.40711   0.65069   0.25000 
H          H       0.34931   0.75642   0.25000 
H          H       0.24358   0.59289   0.25000 
H          H       0.59289   0.34931   0.25000 
H          H       0.65069   0.24358   0.25000 
H          H       0.75642   0.40711   0.25000 
H          H       0.45375   0.64544   0.25000 
H          H       0.35456   0.80831   0.25000 
H          H       0.19169   0.54625   0.25000 
H          H       0.54625   0.35456   0.25000 
H          H       0.64544   0.19169   0.25000 
H          H       0.80831   0.45375   0.25000 
H          H       0.48097   0.61084   0.25000 
H          H       0.38916   0.87013   0.25000 
H          H       0.12987   0.51903   0.25000 
H          H       0.51903   0.38916   0.25000 
H          H       0.61084   0.12987   0.25000 
H          H       0.87013   0.48097   0.25000 
H          H       0.38293   0.52071   0.25000 
H          H       0.47929   0.86222   0.25000 
H          H       0.13778   0.61707   0.25000 
H          H       0.61707   0.47929   0.25000 
H          H       0.52071   0.13778   0.25000 
H          H       0.86222   0.38293   0.25000 
H          H       0.35533   0.55556   0.25000 
H          H       0.44444   0.79977   0.25000 
H          H       0.20023   0.64467   0.25000 
H          H       0.64467   0.44444   0.25000 
H          H       0.55556   0.20023   0.25000 
H          H       0.79977   0.35533   0.25000 
H          H       0.49885   0.57680   0.25000 
H          H       0.42320   0.92205   0.25000 
H          H       0.07795   0.50115   0.25000 
H          H       0.50115   0.42320   0.25000 
H          H       0.57680   0.07795   0.25000 
H          H       0.92205   0.49885   0.25000 
H          H       0.54255   0.56122   0.25000 
H          H       0.43878   0.98133   0.25000 
H          H       0.01867   0.45745   0.25000 
H          H       0.45745   0.43878   0.25000 
H          H       0.56122   0.01867   0.25000 
H          H       0.98133   0.54255   0.25000 
H          H       0.43869   0.48131   0.25000 
H          H       0.51869   0.95738   0.25000 
H          H       0.04262   0.56131   0.25000 
H          H       0.56131   0.51869   0.25000 
H          H       0.48131   0.04262   0.25000 
H          H       0.95738   0.43869   0.25000 
C          C       0.35623   0.70172   0.75000 
C          C       0.29828   0.65451   0.75000 
C          C       0.34549   0.64377   0.75000 
C          C       0.64377   0.29828   0.75000 
C          C       0.70172   0.34549   0.75000 
C          C       0.65451   0.35623   0.75000 
C          C       0.36791   0.67851   0.75000 
C          C       0.32149   0.68940   0.75000 
C          C       0.31060   0.63209   0.75000 
C          C       0.63209   0.32149   0.75000 
C          C       0.67851   0.31060   0.75000 
C          C       0.68940   0.36791   0.75000 
O          O       0.33238   0.58597   0.75000 
O          O       0.41403   0.74641   0.75000 
O          O       0.25359   0.66762   0.75000 
O          O       0.66762   0.41403   0.75000 
O          O       0.58597   0.25359   0.75000 
O          O       0.74641   0.33238   0.75000 
N          N       0.38944   0.62528   0.75000 
N          N       0.37472   0.76416   0.75000 
N          N       0.23584   0.61056   0.75000 
N          N       0.61056   0.37472   0.75000 
N          N       0.62528   0.23584   0.75000 
N          N       0.76416   0.38944   0.75000 
C          C       0.35532   0.61604   0.75000 
C          C       0.38396   0.73928   0.75000 
C          C       0.26072   0.64468   0.75000 
C          C       0.64468   0.38396   0.75000 
C          C       0.61604   0.26072   0.75000 
C          C       0.73928   0.35532   0.75000 
C          C       0.43798   0.61793   0.75000 
C          C       0.38207   0.82005   0.75000 
C          C       0.17995   0.56202   0.75000 
C          C       0.56202   0.38207   0.75000 
C          C       0.61793   0.17995   0.75000 
C          C       0.82005   0.43798   0.75000 
C          C       0.45362   0.59817   0.75000 
C          C       0.40183   0.85545   0.75000 
C          C       0.14455   0.54638   0.75000 
C          C       0.54638   0.40183   0.75000 
C          C       0.59817   0.14455   0.75000 
C          C       0.85545   0.45362   0.75000 
C          C       0.43396   0.56292   0.75000 
C          C       0.43708   0.87104   0.75000 
C          C       0.12896   0.56604   0.75000 
C          C       0.56604   0.43708   0.75000 
C          C       0.56292   0.12896   0.75000 
C          C       0.87104   0.43396   0.75000 
C          C       0.39875   0.54831   0.75000 
C          C       0.45169   0.85044   0.75000 
C          C       0.14956   0.60125   0.75000 
C          C       0.60125   0.45169   0.75000 
C          C       0.54831   0.14956   0.75000 
C          C       0.85044   0.39875   0.75000 
C          C       0.38285   0.56780   0.75000 
C          C       0.43220   0.81505   0.75000 
C          C       0.18495   0.61715   0.75000 
C          C       0.61715   0.43220   0.75000 
C          C       0.56780   0.18495   0.75000 
C          C       0.81505   0.38285   0.75000 
C          C       0.40279   0.60310   0.75000 
C          C       0.39690   0.79969   0.75000 
C          C       0.20031   0.59721   0.75000 
C          C       0.59721   0.39690   0.75000 
C          C       0.60310   0.20031   0.75000 
C          C       0.79969   0.40279   0.75000 
C          C       0.47837   0.54943   0.75000 
C          C       0.45057   0.92894   0.75000 
C          C       0.07106   0.52163   0.75000 
C          C       0.52163   0.45057   0.75000 
C          C       0.54943   0.07106   0.75000 
C          C       0.92894   0.47837   0.75000 
N          N       0.44588   0.53979   0.75000 
N          N       0.46021   0.90609   0.75000 
N          N       0.09391   0.55412   0.75000 
N          N       0.55412   0.46021   0.75000 
N          N       0.53979   0.09391   0.75000 
N          N       0.90609   0.44588   0.75000 
C          C       0.52364   0.53413   0.75000 
C          C       0.46587   0.98951   0.75000 
C          C       0.01049   0.47636   0.75000 
C          C       0.47636   0.46587   0.75000 
C          C       0.53413   0.01049   0.75000 
C          C       0.98951   0.52364   0.75000 
C          C       0.46571   0.48950   0.75000 
C          C       0.51050   0.97621   0.75000 
C          C       0.02379   0.53429   0.75000 
C          C       0.53429   0.51050   0.75000 
C          C       0.48950   0.02379   0.75000 
C          C       0.97621   0.46571   0.75000 
C          C       0.48919   0.52424   0.75000 
C          C       0.47576   0.96495   0.75000 
C          C       0.03505   0.51081   0.75000 
C          C       0.51081   0.47576   0.75000 
C          C       0.52424   0.03505   0.75000 
C          C       0.96495   0.48919   0.75000 
H          H       0.39523   0.68841   0.75000 
H          H       0.31159   0.70682   0.75000 
H          H       0.29318   0.60477   0.75000 
H          H       0.60477   0.31159   0.75000 
H          H       0.68841   0.29318   0.75000 
H          H       0.70682   0.39523   0.75000 
H          H       0.40711   0.65069   0.75000 
H          H       0.34931   0.75642   0.75000 
H          H       0.24358   0.59289   0.75000 
H          H       0.59289   0.34931   0.75000 
H          H       0.65069   0.24358   0.75000 
H          H       0.75642   0.40711   0.75000 
H          H       0.45375   0.64544   0.75000 
H          H       0.35456   0.80831   0.75000 
H          H       0.19169   0.54625   0.75000 
H          H       0.54625   0.35456   0.75000 
H          H       0.64544   0.19169   0.75000 
H          H       0.80831   0.45375   0.75000 
H          H       0.48097   0.61084   0.75000 
H          H       0.38916   0.87013   0.75000 
H          H       0.12987   0.51903   0.75000 
H          H       0.51903   0.38916   0.75000 
H          H       0.61084   0.12987   0.75000 
H          H       0.87013   0.48097   0.75000 
H          H       0.38293   0.52071   0.75000 
H          H       0.47929   0.86222   0.75000 
H          H       0.13778   0.61707   0.75000 
H          H       0.61707   0.47929   0.75000 
H          H       0.52071   0.13778   0.75000 
H          H       0.86222   0.38293   0.75000 
H          H       0.35533   0.55556   0.75000 
H          H       0.44444   0.79977   0.75000 
H          H       0.20023   0.64467   0.75000 
H          H       0.64467   0.44444   0.75000 
H          H       0.55556   0.20023   0.75000 
H          H       0.79977   0.35533   0.75000 
H          H       0.49885   0.57680   0.75000 
H          H       0.42320   0.92205   0.75000 
H          H       0.07795   0.50115   0.75000 
H          H       0.50115   0.42320   0.75000 
H          H       0.57680   0.07795   0.75000 
H          H       0.92205   0.49885   0.75000 
H          H       0.54255   0.56122   0.75000 
H          H       0.43878   0.98133   0.75000 
H          H       0.01867   0.45745   0.75000 
H          H       0.45745   0.43878   0.75000 
H          H       0.56122   0.01867   0.75000 
H          H       0.98133   0.54255   0.75000 
H          H       0.43869   0.48131   0.75000 
H          H       0.51869   0.95738   0.75000 
H          H       0.04262   0.56131   0.75000 
H          H       0.56131   0.51869   0.75000 
H          H       0.48131   0.04262   0.75000 
H          H       0.95738   0.43869   0.75000 
