data_crystal

_cell_length_a    36.88840
_cell_length_b    36.88840
_cell_length_c    9.08910
_cell_angle_alpha 90.00000
_cell_angle_beta  90.00000
_cell_angle_gamma 120.00000

_space_group_name_Hall 'P 1'
_space_group_name_H-M_alt  'P 1'

loop_
_symmetry_equiv_pos_as_xyz
'x,y,z' 

loop_
_atom_site_label
_atom_site_type_symbol
_atom_site_fract_x
_atom_site_fract_y
_atom_site_fract_z
C          C       0.29132   0.63493   0.36412 
C          C       0.36507   0.65639   0.36412 
C          C       0.34361   0.70868   0.36412 
C          C       0.30135   0.67696   0.36490 
C          C       0.32304   0.62439   0.36490 
C          C       0.37561   0.69865   0.36490 
C          C       0.26746   0.68698   0.38001 
C          C       0.31302   0.58048   0.38001 
C          C       0.41952   0.73254   0.38001 
C          C       0.57819   0.80929   0.46957 
C          C       0.19071   0.76890   0.46957 
C          C       0.23110   0.42181   0.46957 
C          C       0.75508   0.90555   0.10677 
C          C       0.09445   0.84953   0.10677 
C          C       0.15047   0.24492   0.10677 
C          C       0.77355   0.89117   0.20967 
C          C       0.10883   0.88238   0.20967 
C          C       0.11762   0.22645   0.20967 
C          C       0.81706   0.91103   0.22426 
C          C       0.08897   0.90603   0.22426 
C          C       0.09397   0.18294   0.22426 
C          C       0.84302   0.94616   0.13755 
C          C       0.05384   0.89686   0.13755 
C          C       0.10314   0.15698   0.13755 
C          C       0.82476   0.96110   0.03765 
C          C       0.03890   0.86366   0.03765 
C          C       0.13634   0.17524   0.03765 
C          C       0.78136   0.94050   0.01994 
C          C       0.05950   0.84086   0.01994 
C          C       0.15914   0.21864   0.01994 
C          C       0.54654   0.81274   0.04248 
C          C       0.18726   0.73380   0.04248 
C          C       0.26620   0.45346   0.04248 
C          C       0.50450   0.78625   0.00680 
C          C       0.21375   0.71825   0.00680 
C          C       0.28175   0.49550   0.00680 
C          C       0.49322   0.75494   0.39954 
C          C       0.24506   0.73828   0.39954 
C          C       0.26172   0.50678   0.39954 
C          C       0.52463   0.75057   0.32975 
C          C       0.24943   0.77406   0.32975 
C          C       0.22594   0.47537   0.32975 
C          C       0.56678   0.77781   0.36289 
C          C       0.22219   0.78897   0.36289 
C          C       0.21103   0.43322   0.36289 
N          N       0.45020   0.72490   0.36998 
N          N       0.27510   0.72530   0.36998 
N          N       0.27470   0.54980   0.36998 
C          C       0.95596   0.97649   0.19737 
C          C       0.02351   0.97947   0.19737 
C          C       0.02053   0.04404   0.19737 
C          C       0.97955   0.95623   0.19803 
C          C       0.04377   0.02332   0.19803 
C          C       0.97668   0.02045   0.19803 
C          C       0.90987   0.95128   0.19233 
C          C       0.04872   0.95859   0.19233 
C          C       0.04141   0.09013   0.19233 
N          N       0.88780   0.96793   0.15007 
N          N       0.03207   0.91987   0.15007 
N          N       0.08013   0.11220   0.15007 
O          O       0.64286   0.98623   0.43700 
O          O       0.01377   0.65663   0.43700 
O          O       0.34337   0.35714   0.43700 
O          O       0.62112   0.89986   0.46959 
O          O       0.10014   0.72126   0.46959 
O          O       0.27874   0.37888   0.46959 
O          O       0.70455   0.94740   0.05744 
O          O       0.05260   0.75715   0.05744 
O          O       0.24285   0.29545   0.05744 
O          O       0.75795   0.03327   0.06447 
O          O       0.96673   0.72468   0.06447 
O          O       0.27532   0.24205   0.06447 
O          O       0.71124   0.06154   0.43235 
O          O       0.93846   0.64970   0.43235 
O          O       0.35030   0.28876   0.43235 
C          C       0.73888   0.08821   0.04166 
C          C       0.91179   0.65067   0.04166 
C          C       0.34933   0.26112   0.04166 
C          C       0.77329   0.07705   0.06825 
C          C       0.92295   0.69624   0.06825 
C          C       0.30376   0.22671   0.06825 
C          C       0.73200   0.01321   0.18695 
C          C       0.98679   0.71879   0.18695 
C          C       0.28121   0.26800   0.18695 
C          C       0.72160   0.96783   0.19462 
C          C       0.03217   0.75377   0.19462 
C          C       0.24623   0.27840   0.19462 
C          C       0.63863   0.01907   0.37419 
C          C       0.98093   0.61956   0.37419 
C          C       0.38044   0.36137   0.37419 
C          C       0.67257   0.06082   0.43615 
C          C       0.93918   0.61175   0.43615 
C          C       0.38825   0.32743   0.43615 
C          C       0.60476   0.95519   0.49807 
C          C       0.04481   0.64957   0.49807 
C          C       0.35043   0.39524   0.49807 
C          C       0.61215   0.92294   0.07617 
C          C       0.07706   0.68921   0.07617 
C          C       0.31079   0.38785   0.07617 
C          C       0.68544   0.90352   0.05981 
C          C       0.09648   0.78192   0.05981 
C          C       0.21808   0.31456   0.05981 
C          C       0.64244   0.87974   0.02182 
C          C       0.12026   0.76270   0.02182 
C          C       0.23730   0.35756   0.02182 
C          C       0.62267   0.83562   0.01387 
C          C       0.16438   0.78705   0.01387 
C          C       0.21295   0.37733   0.01387 
C          C       0.64553   0.81581   0.04770 
C          C       0.18419   0.82972   0.04770 
C          C       0.17028   0.35447   0.04770 
C          C       0.68778   0.83896   0.08249 
C          C       0.16104   0.84882   0.08249 
C          C       0.15118   0.31222   0.08249 
C          C       0.70873   0.88286   0.08628 
C          C       0.11714   0.82587   0.08628 
C          C       0.17413   0.29127   0.08628 
H          H       0.25876   0.61049   0.36843 
H          H       0.38951   0.64827   0.36843 
H          H       0.35173   0.74124   0.36843 
H          H       0.23603   0.66177   0.40313 
H          H       0.33823   0.57426   0.40313 
H          H       0.42574   0.76397   0.40313 
H          H       0.75430   0.86481   0.28043 
H          H       0.13519   0.88949   0.28043 
H          H       0.11051   0.24570   0.28043 
H          H       0.83015   0.89956   0.30613 
H          H       0.10044   0.93059   0.30613 
H          H       0.06941   0.16985   0.30613 
H          H       0.84434   0.98816   0.47018 
H          H       0.01184   0.85618   0.47018 
H          H       0.14382   0.15566   0.47018 
H          H       0.76842   0.95191   0.43811 
H          H       0.04809   0.81651   0.43811 
H          H       0.18349   0.23158   0.43811 
H          H       0.55402   0.83398   0.13369 
H          H       0.16602   0.72004   0.13369 
H          H       0.27996   0.44598   0.13369 
H          H       0.48084   0.78880   0.06886 
H          H       0.21120   0.69204   0.06886 
H          H       0.30796   0.51916   0.06886 
H          H       0.51640   0.72610   0.24892 
H          H       0.27390   0.79030   0.24892 
H          H       0.20970   0.48360   0.24892 
H          H       0.59050   0.77393   0.30672 
H          H       0.22607   0.81657   0.30672 
H          H       0.18343   0.40950   0.30672 
H          H       0.96360   0.92232   0.19719 
H          H       0.07768   0.04128   0.19719 
H          H       0.95872   0.03640   0.19719 
H          H       0.89495   0.91804   0.21479 
H          H       0.08196   0.97691   0.21479 
H          H       0.02309   0.10505   0.21479 
H          H       0.72308   0.08525   0.14894 
H          H       0.91475   0.63783   0.14894 
H          H       0.36217   0.27692   0.14894 
H          H       0.75341   0.12132   0.00491 
H          H       0.87868   0.63209   0.00491 
H          H       0.36791   0.24659   0.00491 
H          H       0.79676   0.09148   0.47878 
H          H       0.90852   0.70528   0.47878 
H          H       0.29472   0.20324   0.47878 
H          H       0.79017   0.09127   0.17286 
H          H       0.90873   0.69890   0.17286 
H          H       0.30110   0.20983   0.17286 
H          H       0.70209   0.01333   0.17713 
H          H       0.98667   0.68876   0.17713 
H          H       0.31124   0.29791   0.17713 
H          H       0.74795   0.02861   0.29092 
H          H       0.97139   0.71934   0.29092 
H          H       0.28066   0.25205   0.29092 
H          H       0.75062   0.96761   0.22154 
H          H       0.03239   0.78301   0.22154 
H          H       0.21699   0.24938   0.22154 
H          H       0.69855   0.95205   0.28427 
H          H       0.04795   0.74650   0.28427 
H          H       0.25350   0.30145   0.28427 
H          H       0.60749   0.01656   0.39159 
H          H       0.98344   0.59093   0.39159 
H          H       0.40907   0.39251   0.39159 
H          H       0.64316   0.01885   0.25387 
H          H       0.98115   0.62431   0.25387 
H          H       0.37569   0.35684   0.25387 
H          H       0.67473   0.08678   0.36763 
H          H       0.91322   0.58795   0.36763 
H          H       0.41205   0.32527   0.36763 
H          H       0.66266   0.06387   0.04894 
H          H       0.93613   0.59879   0.04894 
H          H       0.40121   0.33734   0.04894 
H          H       0.58089   0.93941   0.41016 
H          H       0.06059   0.64148   0.41016 
H          H       0.35852   0.41911   0.41016 
H          H       0.59280   0.96898   0.08064 
H          H       0.03102   0.62382   0.08064 
H          H       0.37618   0.40720   0.08064 
H          H       0.63764   0.93917   0.15738 
H          H       0.06083   0.69847   0.15738 
H          H       0.30153   0.36236   0.15738 
H          H       0.58333   0.90164   0.13848 
H          H       0.09836   0.68169   0.13848 
H          H       0.31831   0.41667   0.13848 
H          H       0.63071   0.78199   0.04436 
H          H       0.21801   0.84872   0.04436 
H          H       0.15128   0.36929   0.04436 
H          H       0.70454   0.82223   0.10062 
H          H       0.17777   0.88231   0.10062 
H          H       0.11769   0.29546   0.10062 
C          C       0.29132   0.63493   0.86412 
C          C       0.36507   0.65639   0.86412 
C          C       0.34361   0.70868   0.86412 
C          C       0.30135   0.67696   0.86490 
C          C       0.32304   0.62439   0.86490 
C          C       0.37561   0.69865   0.86490 
C          C       0.26746   0.68698   0.88001 
C          C       0.31302   0.58048   0.88001 
C          C       0.41952   0.73254   0.88001 
C          C       0.57819   0.80929   0.96957 
C          C       0.19071   0.76890   0.96957 
C          C       0.23110   0.42181   0.96957 
C          C       0.75508   0.90555   0.60677 
C          C       0.09445   0.84953   0.60677 
C          C       0.15047   0.24492   0.60677 
C          C       0.77355   0.89117   0.70967 
C          C       0.10883   0.88238   0.70967 
C          C       0.11762   0.22645   0.70967 
C          C       0.81706   0.91103   0.72426 
C          C       0.08897   0.90603   0.72426 
C          C       0.09397   0.18294   0.72426 
C          C       0.84302   0.94616   0.63755 
C          C       0.05384   0.89686   0.63755 
C          C       0.10314   0.15698   0.63755 
C          C       0.82476   0.96110   0.53765 
C          C       0.03890   0.86366   0.53765 
C          C       0.13634   0.17524   0.53765 
C          C       0.78136   0.94050   0.51994 
C          C       0.05950   0.84086   0.51994 
C          C       0.15914   0.21864   0.51994 
C          C       0.54654   0.81274   0.54248 
C          C       0.18726   0.73380   0.54248 
C          C       0.26620   0.45346   0.54248 
C          C       0.50450   0.78625   0.50680 
C          C       0.21375   0.71825   0.50680 
C          C       0.28175   0.49550   0.50680 
C          C       0.49322   0.75494   0.89954 
C          C       0.24506   0.73828   0.89954 
C          C       0.26172   0.50678   0.89954 
C          C       0.52463   0.75057   0.82975 
C          C       0.24943   0.77406   0.82975 
C          C       0.22594   0.47537   0.82975 
C          C       0.56678   0.77781   0.86289 
C          C       0.22219   0.78897   0.86289 
C          C       0.21103   0.43322   0.86289 
N          N       0.45020   0.72490   0.86998 
N          N       0.27510   0.72530   0.86998 
N          N       0.27470   0.54980   0.86998 
C          C       0.95596   0.97649   0.69737 
C          C       0.02351   0.97947   0.69737 
C          C       0.02053   0.04404   0.69737 
C          C       0.97955   0.95623   0.69803 
C          C       0.04377   0.02332   0.69803 
C          C       0.97668   0.02045   0.69803 
C          C       0.90987   0.95128   0.69233 
C          C       0.04872   0.95859   0.69233 
C          C       0.04141   0.09013   0.69233 
N          N       0.88780   0.96793   0.65007 
N          N       0.03207   0.91987   0.65007 
N          N       0.08013   0.11220   0.65007 
O          O       0.64286   0.98623   0.93700 
O          O       0.01377   0.65663   0.93700 
O          O       0.34337   0.35714   0.93700 
O          O       0.62112   0.89986   0.96959 
O          O       0.10014   0.72126   0.96959 
O          O       0.27874   0.37888   0.96959 
O          O       0.70455   0.94740   0.55744 
O          O       0.05260   0.75715   0.55744 
O          O       0.24285   0.29545   0.55744 
O          O       0.75795   0.03327   0.56447 
O          O       0.96673   0.72468   0.56447 
O          O       0.27532   0.24205   0.56447 
O          O       0.71124   0.06154   0.93235 
O          O       0.93846   0.64970   0.93235 
O          O       0.35030   0.28876   0.93235 
C          C       0.73888   0.08821   0.54166 
C          C       0.91179   0.65067   0.54166 
C          C       0.34933   0.26112   0.54166 
C          C       0.77329   0.07705   0.56825 
C          C       0.92295   0.69624   0.56825 
C          C       0.30376   0.22671   0.56825 
C          C       0.73200   0.01321   0.68695 
C          C       0.98679   0.71879   0.68695 
C          C       0.28121   0.26800   0.68695 
C          C       0.72160   0.96783   0.69462 
C          C       0.03217   0.75377   0.69462 
C          C       0.24623   0.27840   0.69462 
C          C       0.63863   0.01907   0.87420 
C          C       0.98093   0.61956   0.87420 
C          C       0.38044   0.36137   0.87420 
C          C       0.67257   0.06082   0.93615 
C          C       0.93918   0.61175   0.93615 
C          C       0.38825   0.32743   0.93615 
C          C       0.60476   0.95519   0.99807 
C          C       0.04481   0.64957   0.99807 
C          C       0.35043   0.39524   0.99807 
C          C       0.61215   0.92294   0.57617 
C          C       0.07706   0.68921   0.57617 
C          C       0.31079   0.38785   0.57617 
C          C       0.68544   0.90352   0.55981 
C          C       0.09648   0.78192   0.55981 
C          C       0.21808   0.31456   0.55981 
C          C       0.64244   0.87974   0.52182 
C          C       0.12026   0.76270   0.52182 
C          C       0.23730   0.35756   0.52182 
C          C       0.62267   0.83562   0.51387 
C          C       0.16438   0.78705   0.51387 
C          C       0.21295   0.37733   0.51387 
C          C       0.64553   0.81581   0.54771 
C          C       0.18419   0.82972   0.54771 
C          C       0.17028   0.35447   0.54771 
C          C       0.68778   0.83896   0.58249 
C          C       0.16104   0.84882   0.58249 
C          C       0.15118   0.31222   0.58249 
C          C       0.70873   0.88286   0.58629 
C          C       0.11714   0.82587   0.58629 
C          C       0.17413   0.29127   0.58629 
H          H       0.25876   0.61049   0.86843 
H          H       0.38951   0.64827   0.86843 
H          H       0.35173   0.74124   0.86843 
H          H       0.23603   0.66177   0.90313 
H          H       0.33823   0.57426   0.90313 
H          H       0.42574   0.76397   0.90313 
H          H       0.75430   0.86481   0.78043 
H          H       0.13519   0.88949   0.78043 
H          H       0.11051   0.24570   0.78043 
H          H       0.83015   0.89956   0.80613 
H          H       0.10044   0.93059   0.80613 
H          H       0.06941   0.16985   0.80613 
H          H       0.84434   0.98816   0.97018 
H          H       0.01184   0.85618   0.97018 
H          H       0.14382   0.15566   0.97018 
H          H       0.76842   0.95191   0.93810 
H          H       0.04809   0.81651   0.93810 
H          H       0.18349   0.23158   0.93810 
H          H       0.55402   0.83398   0.63369 
H          H       0.16602   0.72004   0.63369 
H          H       0.27996   0.44598   0.63369 
H          H       0.48084   0.78880   0.56885 
H          H       0.21120   0.69204   0.56885 
H          H       0.30796   0.51916   0.56885 
H          H       0.51640   0.72610   0.74892 
H          H       0.27390   0.79030   0.74892 
H          H       0.20970   0.48360   0.74892 
H          H       0.59050   0.77393   0.80671 
H          H       0.22607   0.81657   0.80671 
H          H       0.18343   0.40950   0.80671 
H          H       0.96360   0.92232   0.69719 
H          H       0.07768   0.04128   0.69719 
H          H       0.95872   0.03640   0.69719 
H          H       0.89495   0.91804   0.71479 
H          H       0.08196   0.97691   0.71479 
H          H       0.02309   0.10505   0.71479 
H          H       0.72308   0.08525   0.64894 
H          H       0.91475   0.63783   0.64894 
H          H       0.36217   0.27692   0.64894 
H          H       0.75341   0.12132   0.50491 
H          H       0.87868   0.63209   0.50491 
H          H       0.36791   0.24659   0.50491 
H          H       0.79676   0.09148   0.97878 
H          H       0.90852   0.70528   0.97878 
H          H       0.29472   0.20324   0.97878 
H          H       0.79017   0.09127   0.67286 
H          H       0.90873   0.69890   0.67286 
H          H       0.30110   0.20983   0.67286 
H          H       0.70209   0.01333   0.67713 
H          H       0.98667   0.68876   0.67713 
H          H       0.31124   0.29791   0.67713 
H          H       0.74795   0.02861   0.79092 
H          H       0.97139   0.71934   0.79092 
H          H       0.28066   0.25205   0.79092 
H          H       0.75062   0.96761   0.72154 
H          H       0.03239   0.78301   0.72154 
H          H       0.21699   0.24938   0.72154 
H          H       0.69855   0.95205   0.78427 
H          H       0.04795   0.74650   0.78427 
H          H       0.25350   0.30145   0.78427 
H          H       0.60749   0.01656   0.89159 
H          H       0.98344   0.59093   0.89159 
H          H       0.40907   0.39251   0.89159 
H          H       0.64316   0.01885   0.75387 
H          H       0.98115   0.62431   0.75387 
H          H       0.37569   0.35684   0.75387 
H          H       0.67473   0.08678   0.86763 
H          H       0.91322   0.58795   0.86763 
H          H       0.41205   0.32527   0.86763 
H          H       0.66266   0.06387   0.54894 
H          H       0.93613   0.59879   0.54894 
H          H       0.40121   0.33734   0.54894 
H          H       0.58089   0.93941   0.91015 
H          H       0.06059   0.64148   0.91015 
H          H       0.35852   0.41911   0.91015 
H          H       0.59280   0.96898   0.58064 
H          H       0.03102   0.62382   0.58064 
H          H       0.37618   0.40720   0.58064 
H          H       0.63764   0.93917   0.65738 
H          H       0.06083   0.69847   0.65738 
H          H       0.30153   0.36236   0.65738 
H          H       0.58333   0.90164   0.63849 
H          H       0.09836   0.68169   0.63849 
H          H       0.31831   0.41667   0.63849 
H          H       0.63071   0.78199   0.54436 
H          H       0.21801   0.84872   0.54436 
H          H       0.15128   0.36929   0.54436 
H          H       0.70454   0.82223   0.60062 
H          H       0.17777   0.88231   0.60062 
H          H       0.11769   0.29546   0.60062 
