data_crystal
 
_cell_length_a    36.76940
_cell_length_b    36.76940
_cell_length_c    8.48514
_cell_angle_alpha 90.00000
_cell_angle_beta  90.00000
_cell_angle_gamma 120.00000
 
_symmetry_space_group_name_Hall 'P 1'
_symmetry_space_group_name_H-M  'P 1'
 
loop_
_symmetry_equiv_pos_as_xyz
 'x,y,z' 
 
loop_
_atom_site_label
_atom_site_type_symbol
_atom_site_fract_x
_atom_site_fract_y
_atom_site_fract_z
O          O       0.36596   0.30439   0.45299 
O          O       0.69561   0.06157   0.45299 
O          O       0.93843   0.63404   0.45299 
O          O       0.43413   0.38907   0.01131 
O          O       0.61093   0.04506   0.01131 
O          O       0.95494   0.56587   0.01131 
O          O       0.39254   0.43170   0.12462 
O          O       0.56830   0.96084   0.12462 
O          O       0.03916   0.60746   0.12462 
O          O       0.28586   0.35127   0.04518 
O          O       0.64873   0.93459   0.04518 
O          O       0.06541   0.71414   0.04518 
O          O       0.22012   0.27616   0.45997 
O          O       0.72384   0.94396   0.45997 
O          O       0.05604   0.77988   0.45997 
O          O       0.27695   0.24252   0.44314 
O          O       0.75748   0.03443   0.44314 
O          O       0.96557   0.72305   0.44314 
C          C       0.23541   0.22052   0.00292 
C          C       0.77948   0.01489   0.00292 
C          C       0.98511   0.76459   0.00292 
C          C       0.22328   0.25072   0.07767 
C          C       0.74928   0.97256   0.07767 
C          C       0.02744   0.77672   0.07767 
C          C       0.21125   0.30603   0.02854 
C          C       0.69397   0.90522   0.02854 
C          C       0.09478   0.78875   0.02854 
C          C       0.24819   0.35027   0.00367 
C          C       0.64973   0.89792   0.00367 
C          C       0.10208   0.75181   0.00367 
C          C       0.34906   0.26098   0.48002 
C          C       0.73902   0.08808   0.48002 
C          C       0.91192   0.65094   0.48002 
C          C       0.30567   0.24269   0.05434 
C          C       0.75731   0.06298   0.05434 
C          C       0.93702   0.69433   0.05434 
C          C       0.40657   0.32116   0.38786 
C          C       0.67884   0.08541   0.38786 
C          C       0.91459   0.59343   0.38786 
C          C       0.42567   0.36819   0.36279 
C          C       0.63181   0.05748   0.36279 
C          C       0.94252   0.57433   0.36279 
C          C       0.43254   0.45360   0.05412 
C          C       0.54640   0.97894   0.05412 
C          C       0.02106   0.56746   0.05412 
C          C       0.45452   0.43302   0.00334 
C          C       0.56698   0.02150   0.00334 
C          C       0.97850   0.54548   0.00334 
C          C       0.31801   0.39291   0.07432 
C          C       0.60709   0.92510   0.07432 
C          C       0.07490   0.68199   0.07432 
C          C       0.36036   0.39622   0.04283 
C          C       0.60378   0.96414   0.04283 
C          C       0.03586   0.63964   0.04283 
C          C       0.49790   0.45729   0.46220 
C          C       0.54271   0.04061   0.46220 
C          C       0.95939   0.50210   0.46220 
C          C       0.51723   0.50133   0.46669 
C          C       0.49867   0.01590   0.46669 
C          C       0.98410   0.48277   0.46669 
C          C       0.49504   0.52114   0.00944 
C          C       0.47886   0.97390   0.00944 
C          C       0.02610   0.50496   0.00944 
C          C       0.45291   0.49781   0.05393 
C          C       0.50219   0.95510   0.05393 
C          C       0.04490   0.54709   0.05393 
C          C       0.67743   0.37560   0.33313 
C          C       0.62440   0.30183   0.33313 
C          C       0.69817   0.32257   0.33313 
C          C       0.63493   0.34411   0.33380 
C          C       0.65589   0.29082   0.33380 
C          C       0.70918   0.36507   0.33380 
C          C       0.60125   0.35464   0.34692 
C          C       0.64536   0.24661   0.34692 
C          C       0.75339   0.39875   0.34692 
C          C       0.52484   0.43846   0.42356 
C          C       0.56154   0.08638   0.42356 
C          C       0.91362   0.47516   0.42356 
C          C       0.51944   0.40207   0.49985 
C          C       0.59793   0.11737   0.49985 
C          C       0.88263   0.48056   0.49985 
C          C       0.54602   0.38608   0.46800 
C          C       0.61392   0.15994   0.46800 
C          C       0.84006   0.45398   0.46800 
C          C       0.57967   0.40691   0.36256 
C          C       0.59309   0.17276   0.36256 
C          C       0.82724   0.42033   0.36256 
C          C       0.58596   0.44358   0.28893 
C          C       0.55642   0.14238   0.28893 
C          C       0.85762   0.41404   0.28893 
C          C       0.55834   0.45863   0.31578 
C          C       0.54137   0.09971   0.31578 
C          C       0.90029   0.44166   0.31578 
N          N       0.60958   0.39331   0.33692 
N          N       0.60669   0.21627   0.33692 
N          N       0.78373   0.39042   0.33692 
C          C       0.43017   0.52021   0.09732 
C          C       0.47979   0.90996   0.09732 
C          C       0.09004   0.56983   0.09732 
C          C       0.44876   0.55531   0.19756 
C          C       0.44469   0.89345   0.19756 
C          C       0.10655   0.55124   0.19756 
C          C       0.42813   0.57757   0.23218 
C          C       0.42243   0.85056   0.23218 
C          C       0.14944   0.57187   0.23218 
C          C       0.38846   0.56509   0.16631 
C          C       0.43491   0.82337   0.16631 
C          C       0.17663   0.61154   0.16631 
C          C       0.36965   0.52970   0.06879 
C          C       0.47030   0.83995   0.06879 
C          C       0.16005   0.63035   0.06879 
C          C       0.39052   0.50781   0.03260 
C          C       0.49219   0.88271   0.03260 
C          C       0.11729   0.60948   0.03260 
N          N       0.36641   0.58750   0.19405 
N          N       0.41250   0.77891   0.19405 
N          N       0.22109   0.63359   0.19405 
C          C       0.35743   0.64664   0.25221 
C          C       0.35336   0.71079   0.25221 
C          C       0.28921   0.64257   0.25221 
C          C       0.37721   0.69058   0.25341 
C          C       0.30942   0.68663   0.25341 
C          C       0.31337   0.62279   0.25341 
C          C       0.38323   0.62638   0.23904 
C          C       0.37362   0.75685   0.23904 
C          C       0.24315   0.61677   0.23904 
H          H       0.22998   0.19541   0.08923 
H          H       0.80459   0.03457   0.08923 
H          H       0.96543   0.77002   0.08923 
H          H       0.21378   0.20426   0.40299 
H          H       0.79574   0.00952   0.40299 
H          H       0.99048   0.78622   0.40299 
H          H       0.19238   0.23175   0.13727 
H          H       0.76825   0.96063   0.13727 
H          H       0.03937   0.80762   0.13727 
H          H       0.24735   0.27020   0.16716 
H          H       0.72980   0.97715   0.16716 
H          H       0.02285   0.75265   0.16716 
H          H       0.20356   0.30120   0.15690 
H          H       0.69880   0.90236   0.15690 
H          H       0.09764   0.79644   0.15690 
H          H       0.18325   0.30363   0.46886 
H          H       0.69637   0.87962   0.46886 
H          H       0.12038   0.81675   0.46886 
H          H       0.24953   0.35883   0.37727 
H          H       0.64117   0.89070   0.37727 
H          H       0.10930   0.75047   0.37727 
H          H       0.24254   0.37228   0.07627 
H          H       0.62772   0.87026   0.07627 
H          H       0.12974   0.75746   0.07627 
H          H       0.36929   0.25543   0.06278 
H          H       0.74457   0.11386   0.06278 
H          H       0.88614   0.63071   0.06278 
H          H       0.34618   0.24400   0.36791 
H          H       0.75600   0.10218   0.36791 
H          H       0.89782   0.65382   0.36791 
H          H       0.29619   0.21021   0.09360 
H          H       0.78979   0.08598   0.09360 
H          H       0.91402   0.70381   0.09360 
H          H       0.30791   0.26210   0.15824 
H          H       0.73790   0.04581   0.15824 
H          H       0.95419   0.69209   0.15824 
H          H       0.40503   0.30655   0.27144 
H          H       0.69345   0.09848   0.27144 
H          H       0.90152   0.59497   0.27144 
H          H       0.42769   0.31600   0.46742 
H          H       0.68400   0.11169   0.46742 
H          H       0.88831   0.57231   0.46742 
H          H       0.45486   0.37949   0.29432 
H          H       0.62051   0.07537   0.29432 
H          H       0.92463   0.54514   0.29432 
H          H       0.40366   0.37408   0.29375 
H          H       0.62592   0.02958   0.29375 
H          H       0.97042   0.59634   0.29375 
H          H       0.31631   0.40065   0.19976 
H          H       0.59935   0.91566   0.19976 
H          H       0.08434   0.68369   0.19976 
H          H       0.31551   0.41631   0.49823 
H          H       0.58369   0.89920   0.49823 
H          H       0.10080   0.68449   0.49823 
H          H       0.35927   0.36729   0.08688 
H          H       0.63271   0.99198   0.08688 
H          H       0.00802   0.64073   0.08688 
H          H       0.36580   0.39897   0.41370 
H          H       0.60103   0.96683   0.41370 
H          H       0.03317   0.63420   0.41370 
H          H       0.55031   0.52105   0.44122 
H          H       0.47895   0.02926   0.44122 
H          H       0.97074   0.44969   0.44122 
H          H       0.51112   0.55514   0.00885 
H          H       0.44486   0.95598   0.00885 
H          H       0.04402   0.48888   0.00885 
H          H       0.68594   0.40838   0.33689 
H          H       0.59162   0.27756   0.33689 
H          H       0.72244   0.31406   0.33689 
H          H       0.56936   0.32952   0.36706 
H          H       0.67048   0.23984   0.36706 
H          H       0.76016   0.43064   0.36706 
H          H       0.49580   0.38652   0.08888 
H          H       0.61348   0.10928   0.08888 
H          H       0.89072   0.50420   0.08888 
H          H       0.54146   0.35871   0.03236 
H          H       0.64129   0.18275   0.03236 
H          H       0.81725   0.45854   0.03236 
H          H       0.61189   0.46009   0.20780 
H          H       0.53991   0.15180   0.20780 
H          H       0.84820   0.38811   0.20780 
H          H       0.56338   0.48616   0.25133 
H          H       0.51384   0.07722   0.25133 
H          H       0.92278   0.43662   0.25133 
H          H       0.47924   0.56545   0.24953 
H          H       0.43455   0.91379   0.24953 
H          H       0.08621   0.52076   0.24953 
H          H       0.44304   0.60392   0.31213 
H          H       0.39608   0.83912   0.31213 
H          H       0.16088   0.55696   0.31213 
H          H       0.33928   0.51991   0.01633 
H          H       0.48009   0.81937   0.01633 
H          H       0.18063   0.66072   0.01633 
H          H       0.37637   0.48211   0.44945 
H          H       0.51789   0.89426   0.44945 
H          H       0.10574   0.62363   0.44945 
H          H       0.41119   0.70898   0.25046 
H          H       0.29102   0.70221   0.25046 
H          H       0.29779   0.58881   0.25046 
H          H       0.41667   0.64553   0.25380 
H          H       0.35447   0.77114   0.25380 
H          H       0.22886   0.58333   0.25380 
O          O       0.36596   0.30439   0.95299 
O          O       0.69561   0.06157   0.95299 
O          O       0.93843   0.63404   0.95299 
O          O       0.43413   0.38907   0.51131 
O          O       0.61093   0.04506   0.51131 
O          O       0.95494   0.56587   0.51131 
O          O       0.39254   0.43170   0.62462 
O          O       0.56830   0.96084   0.62462 
O          O       0.03916   0.60746   0.62462 
O          O       0.28586   0.35127   0.54518 
O          O       0.64873   0.93459   0.54518 
O          O       0.06541   0.71414   0.54518 
O          O       0.22012   0.27616   0.95997 
O          O       0.72384   0.94396   0.95997 
O          O       0.05604   0.77988   0.95997 
O          O       0.27695   0.24252   0.94314 
O          O       0.75748   0.03443   0.94314 
O          O       0.96557   0.72305   0.94314 
C          C       0.23541   0.22052   0.50292 
C          C       0.77948   0.01489   0.50292 
C          C       0.98511   0.76459   0.50292 
C          C       0.22328   0.25072   0.57767 
C          C       0.74928   0.97256   0.57767 
C          C       0.02744   0.77672   0.57767 
C          C       0.21125   0.30603   0.52854 
C          C       0.69397   0.90522   0.52854 
C          C       0.09478   0.78875   0.52854 
C          C       0.24819   0.35027   0.50367 
C          C       0.64973   0.89792   0.50367 
C          C       0.10208   0.75181   0.50367 
C          C       0.34906   0.26098   0.98002 
C          C       0.73902   0.08808   0.98002 
C          C       0.91192   0.65094   0.98002 
C          C       0.30567   0.24269   0.55434 
C          C       0.75731   0.06298   0.55434 
C          C       0.93702   0.69433   0.55434 
C          C       0.40657   0.32116   0.88786 
C          C       0.67884   0.08541   0.88786 
C          C       0.91459   0.59343   0.88786 
C          C       0.42567   0.36819   0.86279 
C          C       0.63181   0.05748   0.86279 
C          C       0.94252   0.57433   0.86279 
C          C       0.43254   0.45360   0.55412 
C          C       0.54640   0.97894   0.55412 
C          C       0.02106   0.56746   0.55412 
C          C       0.45452   0.43302   0.50334 
C          C       0.56698   0.02150   0.50334 
C          C       0.97850   0.54548   0.50334 
C          C       0.31801   0.39291   0.57432 
C          C       0.60709   0.92510   0.57432 
C          C       0.07490   0.68199   0.57432 
C          C       0.36036   0.39622   0.54283 
C          C       0.60378   0.96414   0.54283 
C          C       0.03586   0.63964   0.54283 
C          C       0.49790   0.45729   0.96220 
C          C       0.54271   0.04061   0.96220 
C          C       0.95939   0.50210   0.96220 
C          C       0.51723   0.50133   0.96669 
C          C       0.49867   0.01590   0.96669 
C          C       0.98410   0.48277   0.96669 
C          C       0.49504   0.52114   0.50944 
C          C       0.47886   0.97390   0.50944 
C          C       0.02610   0.50496   0.50944 
C          C       0.45291   0.49781   0.55393 
C          C       0.50219   0.95510   0.55393 
C          C       0.04490   0.54709   0.55393 
C          C       0.67743   0.37560   0.83313 
C          C       0.62440   0.30183   0.83313 
C          C       0.69817   0.32257   0.83313 
C          C       0.63493   0.34411   0.83380 
C          C       0.65589   0.29082   0.83380 
C          C       0.70918   0.36507   0.83380 
C          C       0.60125   0.35464   0.84692 
C          C       0.64536   0.24661   0.84692 
C          C       0.75339   0.39875   0.84692 
C          C       0.52484   0.43846   0.92356 
C          C       0.56154   0.08638   0.92356 
C          C       0.91362   0.47516   0.92356 
C          C       0.51944   0.40207   0.99985 
C          C       0.59793   0.11737   0.99985 
C          C       0.88263   0.48056   0.99985 
C          C       0.54602   0.38608   0.96799 
C          C       0.61392   0.15994   0.96799 
C          C       0.84006   0.45398   0.96799 
C          C       0.57967   0.40691   0.86255 
C          C       0.59309   0.17276   0.86255 
C          C       0.82724   0.42033   0.86255 
C          C       0.58596   0.44358   0.78893 
C          C       0.55642   0.14238   0.78893 
C          C       0.85762   0.41404   0.78893 
C          C       0.55834   0.45863   0.81578 
C          C       0.54137   0.09971   0.81578 
C          C       0.90029   0.44166   0.81578 
N          N       0.60958   0.39331   0.83692 
N          N       0.60669   0.21627   0.83692 
N          N       0.78373   0.39042   0.83692 
C          C       0.43017   0.52021   0.59732 
C          C       0.47979   0.90996   0.59732 
C          C       0.09004   0.56983   0.59732 
C          C       0.44876   0.55531   0.69756 
C          C       0.44469   0.89345   0.69756 
C          C       0.10655   0.55124   0.69756 
C          C       0.42813   0.57757   0.73218 
C          C       0.42243   0.85056   0.73218 
C          C       0.14944   0.57187   0.73218 
C          C       0.38846   0.56509   0.66631 
C          C       0.43491   0.82337   0.66631 
C          C       0.17663   0.61154   0.66631 
C          C       0.36965   0.52970   0.56879 
C          C       0.47030   0.83995   0.56879 
C          C       0.16005   0.63035   0.56879 
C          C       0.39052   0.50781   0.53260 
C          C       0.49219   0.88271   0.53260 
C          C       0.11729   0.60948   0.53260 
N          N       0.36641   0.58750   0.69405 
N          N       0.41250   0.77891   0.69405 
N          N       0.22109   0.63359   0.69405 
C          C       0.35743   0.64664   0.75221 
C          C       0.35336   0.71079   0.75221 
C          C       0.28921   0.64257   0.75221 
C          C       0.37721   0.69058   0.75341 
C          C       0.30942   0.68663   0.75341 
C          C       0.31337   0.62279   0.75341 
C          C       0.38323   0.62638   0.73904 
C          C       0.37362   0.75685   0.73904 
C          C       0.24315   0.61677   0.73904 
H          H       0.22998   0.19541   0.58923 
H          H       0.80459   0.03457   0.58923 
H          H       0.96543   0.77002   0.58923 
H          H       0.21378   0.20426   0.90299 
H          H       0.79574   0.00952   0.90299 
H          H       0.99048   0.78622   0.90299 
H          H       0.19238   0.23175   0.63727 
H          H       0.76825   0.96063   0.63727 
H          H       0.03937   0.80762   0.63727 
H          H       0.24735   0.27020   0.66716 
H          H       0.72980   0.97715   0.66716 
H          H       0.02285   0.75265   0.66716 
H          H       0.20356   0.30120   0.65690 
H          H       0.69880   0.90236   0.65690 
H          H       0.09764   0.79644   0.65690 
H          H       0.18325   0.30363   0.96886 
H          H       0.69637   0.87962   0.96886 
H          H       0.12038   0.81675   0.96886 
H          H       0.24953   0.35883   0.87727 
H          H       0.64117   0.89070   0.87727 
H          H       0.10930   0.75047   0.87727 
H          H       0.24254   0.37228   0.57627 
H          H       0.62772   0.87026   0.57627 
H          H       0.12974   0.75746   0.57627 
H          H       0.36929   0.25543   0.56279 
H          H       0.74457   0.11386   0.56279 
H          H       0.88614   0.63071   0.56279 
H          H       0.34618   0.24400   0.86791 
H          H       0.75600   0.10218   0.86791 
H          H       0.89782   0.65382   0.86791 
H          H       0.29619   0.21021   0.59360 
H          H       0.78979   0.08598   0.59360 
H          H       0.91402   0.70381   0.59360 
H          H       0.30791   0.26210   0.65824 
H          H       0.73790   0.04581   0.65824 
H          H       0.95419   0.69209   0.65824 
H          H       0.40503   0.30655   0.77145 
H          H       0.69345   0.09848   0.77145 
H          H       0.90152   0.59497   0.77145 
H          H       0.42769   0.31600   0.96742 
H          H       0.68400   0.11169   0.96742 
H          H       0.88831   0.57231   0.96742 
H          H       0.45486   0.37949   0.79432 
H          H       0.62051   0.07537   0.79432 
H          H       0.92463   0.54514   0.79432 
H          H       0.40366   0.37408   0.79375 
H          H       0.62592   0.02958   0.79375 
H          H       0.97042   0.59634   0.79375 
H          H       0.31631   0.40065   0.69976 
H          H       0.59935   0.91566   0.69976 
H          H       0.08434   0.68369   0.69976 
H          H       0.31551   0.41631   0.99823 
H          H       0.58369   0.89920   0.99823 
H          H       0.10080   0.68449   0.99823 
H          H       0.35927   0.36729   0.58688 
H          H       0.63271   0.99198   0.58688 
H          H       0.00802   0.64073   0.58688 
H          H       0.36580   0.39897   0.91370 
H          H       0.60103   0.96683   0.91370 
H          H       0.03317   0.63420   0.91370 
H          H       0.55031   0.52105   0.94122 
H          H       0.47895   0.02926   0.94122 
H          H       0.97074   0.44969   0.94122 
H          H       0.51112   0.55514   0.50885 
H          H       0.44486   0.95598   0.50885 
H          H       0.04402   0.48888   0.50885 
H          H       0.68594   0.40838   0.83689 
H          H       0.59162   0.27756   0.83689 
H          H       0.72244   0.31406   0.83689 
H          H       0.56936   0.32952   0.86706 
H          H       0.67048   0.23984   0.86706 
H          H       0.76016   0.43064   0.86706 
H          H       0.49580   0.38652   0.58888 
H          H       0.61348   0.10928   0.58888 
H          H       0.89072   0.50420   0.58888 
H          H       0.54146   0.35871   0.53236 
H          H       0.64129   0.18275   0.53236 
H          H       0.81725   0.45854   0.53236 
H          H       0.61189   0.46009   0.70780 
H          H       0.53991   0.15180   0.70780 
H          H       0.84820   0.38811   0.70780 
H          H       0.56338   0.48616   0.75133 
H          H       0.51384   0.07722   0.75133 
H          H       0.92278   0.43662   0.75133 
H          H       0.47924   0.56545   0.74953 
H          H       0.43455   0.91379   0.74953 
H          H       0.08621   0.52076   0.74953 
H          H       0.44304   0.60392   0.81213 
H          H       0.39608   0.83912   0.81213 
H          H       0.16088   0.55696   0.81213 
H          H       0.33928   0.51991   0.51633 
H          H       0.48009   0.81937   0.51633 
H          H       0.18063   0.66072   0.51633 
H          H       0.37637   0.48211   0.94945 
H          H       0.51789   0.89426   0.94945 
H          H       0.10574   0.62363   0.94945 
H          H       0.41119   0.70898   0.75046 
H          H       0.29102   0.70221   0.75046 
H          H       0.29779   0.58881   0.75046 
H          H       0.41667   0.64553   0.75380 
H          H       0.35447   0.77114   0.75380 
H          H       0.22886   0.58333   0.75380 
