data_crystal

_cell_length_a    37.15760
_cell_length_b    37.15760
_cell_length_c    8.71196
_cell_angle_alpha 90.00000
_cell_angle_beta  90.00000
_cell_angle_gamma 120.00000

_space_group_name_Hall 'P 1'
_space_group_name_H-M_alt  'P 1'

loop_
_symmetry_equiv_pos_as_xyz
'x,y,z' 

loop_
_atom_site_label
_atom_site_type_symbol
_atom_site_fract_x
_atom_site_fract_y
_atom_site_fract_z
C          C       0.29122   0.63620   0.46170 
C          C       0.36380   0.65502   0.46170 
C          C       0.34498   0.70878   0.46170 
C          C       0.30262   0.67836   0.46214 
C          C       0.32164   0.62426   0.46214 
C          C       0.37574   0.69738   0.46214 
C          C       0.31014   0.58008   0.47294 
C          C       0.41992   0.73006   0.47294 
C          C       0.26994   0.68986   0.47294 
C          C       0.22504   0.42069   0.02477 
C          C       0.57931   0.80435   0.02477 
C          C       0.19565   0.77496   0.02477 
C          C       0.26010   0.45045   0.10650 
C          C       0.54955   0.80965   0.10650 
C          C       0.19035   0.73990   0.10650 
C          C       0.27652   0.49295   0.08131 
C          C       0.50705   0.78357   0.08131 
C          C       0.21643   0.72348   0.08131 
C          C       0.25751   0.50703   0.47684 
C          C       0.49297   0.75048   0.47684 
C          C       0.24952   0.74249   0.47684 
C          C       0.22204   0.47787   0.39810 
C          C       0.52213   0.74417   0.39810 
C          C       0.25583   0.77796   0.39810 
C          C       0.20652   0.43527   0.41885 
C          C       0.56473   0.77125   0.41885 
C          C       0.22875   0.79348   0.41885 
N          N       0.27183   0.55051   0.45641 
N          N       0.44949   0.72132   0.45641 
N          N       0.27868   0.72817   0.45641 
C          C       0.65069   0.81365   0.04602 
C          C       0.18635   0.83704   0.04602 
C          C       0.16296   0.34931   0.04602 
C          C       0.69298   0.83683   0.07766 
C          C       0.16317   0.85615   0.07766 
C          C       0.14385   0.30702   0.07766 
C          C       0.71116   0.87832   0.12399 
C          C       0.12168   0.83284   0.12399 
C          C       0.16716   0.28884   0.12399 
C          C       0.68611   0.89686   0.13785 
C          C       0.10314   0.78925   0.13785 
C          C       0.21075   0.31389   0.13785 
C          C       0.64369   0.87415   0.09670 
C          C       0.12585   0.76954   0.09670 
C          C       0.23046   0.35631   0.09670 
C          C       0.62511   0.83151   0.05400 
C          C       0.16849   0.79360   0.05400 
C          C       0.20640   0.37489   0.05400 
C          C       0.75648   0.90164   0.15472 
C          C       0.09836   0.85484   0.15472 
C          C       0.14516   0.24352   0.15472 
O          O       0.70159   0.93522   0.21374 
O          O       0.06478   0.76637   0.21374 
O          O       0.23363   0.29841   0.21374 
O          O       0.62010   0.89383   0.10965 
O          O       0.10617   0.72627   0.10965 
O          O       0.27373   0.37990   0.10965 
C          C       0.60774   0.90308   0.46660 
C          C       0.09692   0.70466   0.46660 
C          C       0.29534   0.39226   0.46660 
C          C       0.77451   0.88557   0.25536 
C          C       0.11443   0.88894   0.25536 
C          C       0.11106   0.22549   0.25536 
C          C       0.81764   0.90611   0.27612 
C          C       0.09389   0.91153   0.27612 
C          C       0.08847   0.18236   0.27612 
C          C       0.84346   0.94322   0.19629 
C          C       0.05678   0.90024   0.19629 
C          C       0.09976   0.15654   0.19629 
C          C       0.82539   0.95922   0.09664 
C          C       0.04078   0.86617   0.09664 
C          C       0.13383   0.17461   0.09664 
C          C       0.78246   0.93811   0.07303 
C          C       0.06189   0.84435   0.07303 
C          C       0.15565   0.21754   0.07303 
C          C       0.71613   0.97102   0.11730 
C          C       0.02898   0.74511   0.11730 
C          C       0.25489   0.28387   0.11730 
C          C       0.70005   0.99943   0.17234 
C          C       0.00057   0.70062   0.17234 
C          C       0.29938   0.29995   0.17234 
O          O       0.65686   0.98059   0.14460 
O          O       0.01941   0.67627   0.14460 
O          O       0.32373   0.34314   0.14460 
C          C       0.64703   0.00951   0.08048 
C          C       0.99049   0.63752   0.08048 
C          C       0.36248   0.35297   0.08048 
C          C       0.60074   0.98823   0.04282 
C          C       0.01177   0.61251   0.04282 
C          C       0.38749   0.39926   0.04282 
O          O       0.58989   0.95697   0.43016 
O          O       0.04303   0.63292   0.43016 
O          O       0.36708   0.41011   0.43016 
C          C       0.57599   0.91723   0.49557 
C          C       0.08277   0.65876   0.49557 
C          C       0.34124   0.42401   0.49557 
C          C       0.97594   0.01935   0.26314 
C          C       0.98065   0.95659   0.26314 
C          C       0.04341   0.02406   0.26314 
C          C       0.95629   0.97573   0.26239 
C          C       0.02427   0.98056   0.26239 
C          C       0.01944   0.04371   0.26239 
C          C       0.91054   0.94971   0.25548 
C          C       0.05029   0.96083   0.25548 
C          C       0.03917   0.08946   0.25548 
N          N       0.88788   0.96558   0.21327 
N          N       0.03442   0.92230   0.21327 
N          N       0.07770   0.11212   0.21327 
H          H       0.25858   0.61273   0.46492 
H          H       0.38727   0.64585   0.46492 
H          H       0.35415   0.74142   0.46492 
H          H       0.33441   0.57268   0.49517 
H          H       0.42732   0.76173   0.49517 
H          H       0.23827   0.66559   0.49517 
H          H       0.27426   0.44138   0.19466 
H          H       0.55862   0.83288   0.19466 
H          H       0.16712   0.72574   0.19466 
H          H       0.30284   0.51469   0.14939 
H          H       0.48531   0.78815   0.14939 
H          H       0.21185   0.69716   0.14939 
H          H       0.20688   0.48821   0.31765 
H          H       0.51179   0.71867   0.31765 
H          H       0.28133   0.79312   0.31765 
H          H       0.18011   0.41385   0.35045 
H          H       0.58615   0.76626   0.35045 
H          H       0.23374   0.81989   0.35045 
H          H       0.63797   0.78114   0.01829 
H          H       0.21886   0.85683   0.01829 
H          H       0.14317   0.36203   0.01829 
H          H       0.71164   0.82200   0.06764 
H          H       0.17800   0.88964   0.06764 
H          H       0.11036   0.28836   0.06764 
H          H       0.59326   0.87528   0.39210 
H          H       0.12472   0.71798   0.39210 
H          H       0.28202   0.40674   0.39210 
H          H       0.63547   0.92754   0.40558 
H          H       0.07246   0.70793   0.40558 
H          H       0.29207   0.36453   0.40558 
H          H       0.75517   0.85711   0.31794 
H          H       0.14289   0.89806   0.31794 
H          H       0.10194   0.24483   0.31794 
H          H       0.83045   0.89336   0.35673 
H          H       0.10664   0.93709   0.35673 
H          H       0.06291   0.16955   0.35673 
H          H       0.84488   0.98733   0.03238 
H          H       0.01267   0.85755   0.03238 
H          H       0.14245   0.15512   0.03238 
H          H       0.76977   0.94934   0.48588 
H          H       0.05066   0.82043   0.48588 
H          H       0.17957   0.23023   0.48588 
H          H       0.70781   0.96270   0.49492 
H          H       0.03730   0.74511   0.49492 
H          H       0.25489   0.29219   0.49492 
H          H       0.75049   0.98925   0.12616 
H          H       0.01075   0.76124   0.12616 
H          H       0.23876   0.24951   0.12616 
H          H       0.71902   0.03009   0.11424 
H          H       0.96991   0.68893   0.11424 
H          H       0.31107   0.28098   0.11424 
H          H       0.70578   0.00500   0.29730 
H          H       0.99500   0.70078   0.29730 
H          H       0.29922   0.29422   0.29730 
H          H       0.66451   0.02277   0.47182 
H          H       0.97723   0.64174   0.47182 
H          H       0.35826   0.33549   0.47182 
H          H       0.65456   0.03512   0.16343 
H          H       0.96488   0.61944   0.16343 
H          H       0.38056   0.34544   0.16343 
H          H       0.59454   0.01213   0.49324 
H          H       0.98787   0.58241   0.49324 
H          H       0.41759   0.40546   0.49324 
H          H       0.58153   0.97735   0.14885 
H          H       0.02265   0.60418   0.14885 
H          H       0.39582   0.41847   0.14885 
H          H       0.56819   0.91477   0.12011 
H          H       0.08523   0.65342   0.12011 
H          H       0.34658   0.43181   0.12011 
H          H       0.54641   0.89506   0.43777 
H          H       0.10494   0.65135   0.43777 
H          H       0.34865   0.45359   0.43777 
H          H       0.95742   0.03444   0.26179 
H          H       0.96556   0.92298   0.26179 
H          H       0.07702   0.04258   0.26179 
H          H       0.89652   0.91667   0.27523 
H          H       0.08333   0.97985   0.27523 
H          H       0.02015   0.10348   0.27523 
C          C       0.29122   0.63620   0.96169 
C          C       0.36380   0.65502   0.96169 
C          C       0.34498   0.70878   0.96169 
C          C       0.30262   0.67836   0.96214 
C          C       0.32164   0.62426   0.96214 
C          C       0.37574   0.69738   0.96214 
C          C       0.31014   0.58008   0.97294 
C          C       0.41992   0.73006   0.97294 
C          C       0.26994   0.68986   0.97294 
C          C       0.22504   0.42069   0.52477 
C          C       0.57931   0.80435   0.52477 
C          C       0.19565   0.77496   0.52477 
C          C       0.26010   0.45045   0.60650 
C          C       0.54955   0.80965   0.60650 
C          C       0.19035   0.73990   0.60650 
C          C       0.27652   0.49295   0.58131 
C          C       0.50705   0.78357   0.58131 
C          C       0.21643   0.72348   0.58131 
C          C       0.25751   0.50703   0.97684 
C          C       0.49297   0.75048   0.97684 
C          C       0.24952   0.74249   0.97684 
C          C       0.22204   0.47787   0.89810 
C          C       0.52213   0.74417   0.89810 
C          C       0.25583   0.77796   0.89810 
C          C       0.20652   0.43527   0.91885 
C          C       0.56473   0.77125   0.91885 
C          C       0.22875   0.79348   0.91885 
N          N       0.27183   0.55051   0.95641 
N          N       0.44949   0.72132   0.95641 
N          N       0.27868   0.72817   0.95641 
C          C       0.65069   0.81365   0.54602 
C          C       0.18635   0.83704   0.54602 
C          C       0.16296   0.34931   0.54602 
C          C       0.69298   0.83683   0.57766 
C          C       0.16317   0.85615   0.57766 
C          C       0.14385   0.30702   0.57766 
C          C       0.71116   0.87832   0.62399 
C          C       0.12168   0.83284   0.62399 
C          C       0.16716   0.28884   0.62399 
C          C       0.68611   0.89686   0.63785 
C          C       0.10314   0.78925   0.63785 
C          C       0.21075   0.31389   0.63785 
C          C       0.64369   0.87415   0.59670 
C          C       0.12585   0.76954   0.59670 
C          C       0.23046   0.35631   0.59670 
C          C       0.62511   0.83151   0.55400 
C          C       0.16849   0.79360   0.55400 
C          C       0.20640   0.37489   0.55400 
C          C       0.75648   0.90164   0.65472 
C          C       0.09836   0.85484   0.65472 
C          C       0.14516   0.24352   0.65472 
O          O       0.70159   0.93522   0.71374 
O          O       0.06478   0.76637   0.71374 
O          O       0.23363   0.29841   0.71374 
O          O       0.62010   0.89383   0.60965 
O          O       0.10617   0.72627   0.60965 
O          O       0.27373   0.37990   0.60965 
C          C       0.60774   0.90308   0.96661 
C          C       0.09692   0.70466   0.96661 
C          C       0.29534   0.39226   0.96661 
C          C       0.77451   0.88557   0.75536 
C          C       0.11443   0.88894   0.75536 
C          C       0.11106   0.22549   0.75536 
C          C       0.81764   0.90611   0.77612 
C          C       0.09389   0.91153   0.77612 
C          C       0.08847   0.18236   0.77612 
C          C       0.84346   0.94322   0.69629 
C          C       0.05678   0.90024   0.69629 
C          C       0.09976   0.15654   0.69629 
C          C       0.82539   0.95922   0.59664 
C          C       0.04078   0.86617   0.59664 
C          C       0.13383   0.17461   0.59664 
C          C       0.78246   0.93811   0.57303 
C          C       0.06189   0.84435   0.57303 
C          C       0.15565   0.21754   0.57303 
C          C       0.71613   0.97102   0.61730 
C          C       0.02898   0.74511   0.61730 
C          C       0.25489   0.28387   0.61730 
C          C       0.70005   0.99943   0.67234 
C          C       0.00057   0.70062   0.67234 
C          C       0.29938   0.29995   0.67234 
O          O       0.65686   0.98059   0.64460 
O          O       0.01941   0.67627   0.64460 
O          O       0.32373   0.34314   0.64460 
C          C       0.64703   0.00951   0.58048 
C          C       0.99049   0.63752   0.58048 
C          C       0.36248   0.35297   0.58048 
C          C       0.60074   0.98823   0.54282 
C          C       0.01177   0.61251   0.54282 
C          C       0.38749   0.39926   0.54282 
O          O       0.58989   0.95697   0.93015 
O          O       0.04303   0.63292   0.93015 
O          O       0.36708   0.41011   0.93015 
C          C       0.57599   0.91723   0.99557 
C          C       0.08277   0.65876   0.99557 
C          C       0.34124   0.42401   0.99557 
C          C       0.97594   0.01935   0.76314 
C          C       0.98065   0.95659   0.76314 
C          C       0.04341   0.02406   0.76314 
C          C       0.95629   0.97573   0.76239 
C          C       0.02427   0.98056   0.76239 
C          C       0.01944   0.04371   0.76239 
C          C       0.91054   0.94971   0.75548 
C          C       0.05029   0.96083   0.75548 
C          C       0.03917   0.08946   0.75548 
N          N       0.88788   0.96558   0.71327 
N          N       0.03442   0.92230   0.71327 
N          N       0.07770   0.11212   0.71327 
H          H       0.25858   0.61273   0.96492 
H          H       0.38727   0.64585   0.96492 
H          H       0.35415   0.74142   0.96492 
H          H       0.33441   0.57268   0.99518 
H          H       0.42732   0.76173   0.99518 
H          H       0.23827   0.66559   0.99518 
H          H       0.27426   0.44138   0.69466 
H          H       0.55862   0.83288   0.69466 
H          H       0.16712   0.72574   0.69466 
H          H       0.30284   0.51469   0.64939 
H          H       0.48531   0.78815   0.64939 
H          H       0.21185   0.69716   0.64939 
H          H       0.20688   0.48821   0.81766 
H          H       0.51179   0.71867   0.81766 
H          H       0.28133   0.79312   0.81766 
H          H       0.18011   0.41385   0.85045 
H          H       0.58615   0.76626   0.85045 
H          H       0.23374   0.81989   0.85045 
H          H       0.63797   0.78114   0.51829 
H          H       0.21886   0.85683   0.51829 
H          H       0.14317   0.36203   0.51829 
H          H       0.71164   0.82200   0.56764 
H          H       0.17800   0.88964   0.56764 
H          H       0.11036   0.28836   0.56764 
H          H       0.59326   0.87528   0.89210 
H          H       0.12472   0.71798   0.89210 
H          H       0.28202   0.40674   0.89210 
H          H       0.63547   0.92754   0.90557 
H          H       0.07246   0.70793   0.90557 
H          H       0.29207   0.36453   0.90557 
H          H       0.75517   0.85711   0.81794 
H          H       0.14289   0.89806   0.81794 
H          H       0.10194   0.24483   0.81794 
H          H       0.83045   0.89336   0.85673 
H          H       0.10664   0.93709   0.85673 
H          H       0.06291   0.16955   0.85673 
H          H       0.84488   0.98733   0.53238 
H          H       0.01267   0.85755   0.53238 
H          H       0.14245   0.15512   0.53238 
H          H       0.76977   0.94934   0.98587 
H          H       0.05066   0.82043   0.98587 
H          H       0.17957   0.23023   0.98587 
H          H       0.70781   0.96270   0.99493 
H          H       0.03730   0.74511   0.99493 
H          H       0.25489   0.29219   0.99493 
H          H       0.75049   0.98925   0.62616 
H          H       0.01075   0.76124   0.62616 
H          H       0.23876   0.24951   0.62616 
H          H       0.71902   0.03009   0.61424 
H          H       0.96991   0.68893   0.61424 
H          H       0.31107   0.28098   0.61424 
H          H       0.70578   0.00500   0.79730 
H          H       0.99500   0.70078   0.79730 
H          H       0.29922   0.29422   0.79730 
H          H       0.66451   0.02277   0.97182 
H          H       0.97723   0.64174   0.97182 
H          H       0.35826   0.33549   0.97182 
H          H       0.65456   0.03512   0.66343 
H          H       0.96488   0.61944   0.66343 
H          H       0.38056   0.34544   0.66343 
H          H       0.59454   0.01213   0.99324 
H          H       0.98787   0.58241   0.99324 
H          H       0.41759   0.40546   0.99324 
H          H       0.58153   0.97735   0.64885 
H          H       0.02265   0.60418   0.64885 
H          H       0.39582   0.41847   0.64885 
H          H       0.56819   0.91477   0.62011 
H          H       0.08523   0.65342   0.62011 
H          H       0.34658   0.43181   0.62011 
H          H       0.54641   0.89506   0.93777 
H          H       0.10494   0.65135   0.93777 
H          H       0.34865   0.45359   0.93777 
H          H       0.95742   0.03444   0.76179 
H          H       0.96556   0.92298   0.76179 
H          H       0.07702   0.04258   0.76179 
H          H       0.89652   0.91667   0.77523 
H          H       0.08333   0.97985   0.77523 
H          H       0.02015   0.10348   0.77523 
