data_crystal

_cell_length_a    41.36000
_cell_length_b    41.60000
_cell_length_c    12.98000
_cell_angle_alpha 90.00000
_cell_angle_beta  90.00000
_cell_angle_gamma 117.23000

_space_group_name_Hall 'P 1'
_space_group_name_H-M_alt  'P 1'

loop_
_symmetry_equiv_pos_as_xyz
'x,y,z' 

loop_
_atom_site_label
_atom_site_type_symbol
_atom_site_fract_x
_atom_site_fract_y
_atom_site_fract_z
C          C       0.73015   0.36417   0.94165 
C          C       0.75148   0.35845   0.01490 
C          C       0.73189   0.33220   0.09015 
N          N       0.79307   0.37974   0.01185 
C          C       0.81587   0.36962   0.04276 
C          C       0.85821   0.39365   0.03511 
C          C       0.88173   0.38002   0.04655 
C          C       0.92192   0.40216   0.03928 
C          C       0.93981   0.43872   0.01997 
C          C       0.91564   0.45200   0.00643 
C          C       0.87548   0.42986   0.01512 
C          C       0.98309   0.46269   0.01226 
C          C       0.00632   0.44914   0.98957 
C          C       0.19472   0.33150   0.95687 
C          C       0.16384   0.32193   0.02389 
C          C       0.14510   0.34036   0.02381 
C          C       0.15615   0.36880   0.95703 
C          C       0.18681   0.37916   0.88768 
C          C       0.20633   0.36148   0.88577 
N          N       0.13531   0.38630   0.96376 
C          C       0.14002   0.41246   0.90826 
C          C       0.11586   0.42731   0.92643 
C          C       0.12137   0.45565   0.86622 
C          C       0.09892   0.47017   0.88293 
C          C       0.07033   0.45635   0.95965 
C          C       0.06476   0.42794   0.01965 
C          C       0.08735   0.41360   0.00344 
C          C       0.04646   0.47155   0.97865 
C          C       0.06376   0.50824   0.98648 
C          C       0.20903   0.80889   0.06913 
C          C       0.22264   0.79266   0.00458 
C          C       0.20292   0.75584   0.99787 
C          C       0.16884   0.73451   0.05344 
C          C       0.15537   0.75047   0.11940 
C          C       0.17534   0.78731   0.12731 
N          N       0.14921   0.69683   0.04323 
C          C       0.11209   0.67489   0.05289 
C          C       0.09470   0.63650   0.04122 
C          C       0.05481   0.61423   0.02530 
C          C       0.03785   0.57783   0.01258 
C          C       0.06019   0.56239   0.01970 
C          C       0.10047   0.58530   0.03529 
C          C       0.11745   0.62178   0.04513 
C          C       0.04169   0.52296   0.01060 
C          C       0.00154   0.49955   0.02601 
C          C       0.75078   0.39255   0.86356 
C          C       0.73686   0.39108   0.77014 
C          C       0.69125   0.31081   0.09201 
C          C       0.66985   0.31551   0.01620 
C          C       0.68950   0.34282   0.94356 
N          N       0.62822   0.29296   0.01774 
C          C       0.60426   0.28967   0.94654 
C          C       0.56214   0.26518   0.96012 
C          C       0.53659   0.26555   0.88904 
C          C       0.49660   0.24250   0.90032 
C          C       0.48158   0.21830   0.98199 
C          C       0.50710   0.21779   0.05291 
C          C       0.54704   0.24119   0.04255 
C          C       0.43935   0.19337   0.99278 
C          C       0.41438   0.20581   0.99176 
C          C       0.21562   0.31271   0.95867 
C          C       0.23350   0.31003   0.87043 
C          C       0.25341   0.29262   0.87367 
C          C       0.25584   0.27695   0.96412 
C          C       0.23867   0.27936   0.05474 
C          C       0.21878   0.29666   0.05469 
N          N       0.27754   0.26021   0.96163 
C          C       0.27528   0.23749   0.02805 
C          C       0.30020   0.22305   0.01909 
C          C       0.29641   0.19804   0.09096 
C          C       0.32017   0.18448   0.08541 
C          C       0.34837   0.19590   0.00822 
C          C       0.35207   0.22082   0.93595 
C          C       0.32813   0.23420   0.94106 
C          C       0.37436   0.18235   0.00462 
C          C       0.35931   0.14601   0.01545 
C          C       0.22962   0.84812   0.07443 
C          C       0.20880   0.86478   0.08394 
C          C       0.22810   0.90168   0.08518 
C          C       0.26837   0.92268   0.07497 
C          C       0.28946   0.90621   0.06827 
C          C       0.27024   0.86933   0.06810 
N          N       0.28684   0.96048   0.07246 
C          C       0.31967   0.98223   0.02783 
C          C       0.33604   0.02071   0.02731 
C          C       0.36745   0.04250   0.96290 
C          C       0.38301   0.07890   0.95903 
C          C       0.36765   0.09435   0.02026 
C          C       0.33639   0.07252   0.08566 
C          C       0.32067   0.03603   0.08903 
C          C       0.38387   0.13300   0.01426 
C          C       0.42398   0.15705   0.00459 
C          C       0.67078   0.28285   0.17130 
C          C       0.68461   0.28510   0.26527 
H          H       0.74842   0.32846   0.14751 
H          H       0.80411   0.34274   0.06961 
H          H       0.86901   0.35210   0.06184 
H          H       0.93858   0.39028   0.05171 
H          H       0.92726   0.47930   0.98613 
H          H       0.85795   0.44107   0.00482 
H          H       0.99356   0.42119   0.97643 
H          H       0.15365   0.29987   0.07616 
H          H       0.12144   0.33235   0.07691 
H          H       0.19635   0.40105   0.83544 
H          H       0.23048   0.37058   0.83383 
H          H       0.16138   0.42378   0.84790 
H          H       0.14307   0.46660   0.80627 
H          H       0.10363   0.49192   0.83520 
H          H       0.04324   0.41714   0.08017 
H          H       0.08248   0.39183   0.05140 
H          H       0.09450   0.52488   0.97303 
H          H       0.24814   0.80840   0.95764 
H          H       0.21375   0.74385   0.94736 
H          H       0.12985   0.73457   0.16612 
H          H       0.16461   0.79884   0.17985 
H          H       0.09318   0.68462   0.06477 
H          H       0.03678   0.62512   0.02015 
H          H       0.00733   0.56232   0.99482 
H          H       0.11936   0.57553   0.04288 
H          H       0.14840   0.63838   0.05764 
H          H       0.98458   0.50994   0.05126 
H          H       0.77935   0.41507   0.88129 
H          H       0.70935   0.36877   0.74495 
H          H       0.75370   0.41233   0.71613 
H          H       0.67339   0.34814   0.88944 
H          H       0.61449   0.30427   0.87547 
H          H       0.54757   0.28378   0.82487 
H          H       0.47739   0.24315   0.84441 
H          H       0.49606   0.19948   0.11687 
H          H       0.56605   0.24027   0.09853 
H          H       0.42629   0.23394   0.98434 
H          H       0.23193   0.32106   0.79817 
H          H       0.26707   0.29113   0.80441 
H          H       0.24129   0.26872   0.12652 
H          H       0.20677   0.29898   0.12590 
H          H       0.25472   0.22835   0.09058 
H          H       0.27523   0.18917   0.15204 
H          H       0.31705   0.16559   0.14270 
H          H       0.37337   0.22978   0.87519 
H          H       0.33168   0.25342   0.88439 
H          H       0.32830   0.12778   0.02182 
H          H       0.17750   0.84935   0.08795 
H          H       0.21153   0.91400   0.09147 
H          H       0.32073   0.92169   0.06438 
H          H       0.28728   0.85743   0.06362 
H          H       0.33457   0.97227   0.98510 
H          H       0.37963   0.03126   0.91428 
H          H       0.40664   0.09486   0.90658 
H          H       0.32428   0.08367   0.13488 
H          H       0.29662   0.01988   0.14012 
H          H       0.44337   0.14753   0.00547 
H          H       0.64240   0.26001   0.15403 
H          H       0.66787   0.26418   0.32029 
H          H       0.71191   0.30776   0.28950 
C          C       0.73015   0.36417   0.44165 
C          C       0.75148   0.35845   0.51490 
C          C       0.73189   0.33220   0.59015 
N          N       0.79307   0.37974   0.51185 
C          C       0.81587   0.36962   0.54275 
C          C       0.85821   0.39365   0.53511 
C          C       0.88173   0.38002   0.54656 
C          C       0.92192   0.40216   0.53928 
C          C       0.93981   0.43872   0.51997 
C          C       0.91564   0.45200   0.50643 
C          C       0.87548   0.42986   0.51512 
C          C       0.98309   0.46269   0.51226 
C          C       0.00632   0.44914   0.48957 
C          C       0.19472   0.33150   0.45687 
C          C       0.16384   0.32193   0.52389 
C          C       0.14510   0.34036   0.52381 
C          C       0.15615   0.36880   0.45703 
C          C       0.18681   0.37916   0.38768 
C          C       0.20633   0.36148   0.38577 
N          N       0.13531   0.38630   0.46375 
C          C       0.14002   0.41246   0.40825 
C          C       0.11586   0.42731   0.42643 
C          C       0.12137   0.45565   0.36622 
C          C       0.09892   0.47017   0.38292 
C          C       0.07033   0.45635   0.45965 
C          C       0.06476   0.42794   0.51965 
C          C       0.08735   0.41360   0.50344 
C          C       0.04646   0.47155   0.47864 
C          C       0.06376   0.50824   0.48647 
C          C       0.20903   0.80889   0.56913 
C          C       0.22264   0.79266   0.50458 
C          C       0.20292   0.75584   0.49787 
C          C       0.16884   0.73451   0.55344 
C          C       0.15537   0.75047   0.61940 
C          C       0.17534   0.78731   0.62731 
N          N       0.14921   0.69683   0.54323 
C          C       0.11209   0.67489   0.55289 
C          C       0.09470   0.63650   0.54122 
C          C       0.05481   0.61423   0.52531 
C          C       0.03785   0.57783   0.51258 
C          C       0.06019   0.56239   0.51970 
C          C       0.10047   0.58530   0.53529 
C          C       0.11745   0.62178   0.54513 
C          C       0.04169   0.52296   0.51060 
C          C       0.00154   0.49955   0.52601 
C          C       0.75078   0.39255   0.36356 
C          C       0.73686   0.39108   0.27014 
C          C       0.69125   0.31081   0.59201 
C          C       0.66985   0.31551   0.51620 
C          C       0.68950   0.34282   0.44356 
N          N       0.62822   0.29296   0.51773 
C          C       0.60426   0.28967   0.44653 
C          C       0.56214   0.26518   0.46011 
C          C       0.53659   0.26555   0.38904 
C          C       0.49660   0.24250   0.40032 
C          C       0.48158   0.21830   0.48199 
C          C       0.50710   0.21779   0.55290 
C          C       0.54704   0.24119   0.54255 
C          C       0.43935   0.19337   0.49277 
C          C       0.41438   0.20581   0.49176 
C          C       0.21562   0.31271   0.45867 
C          C       0.23350   0.31003   0.37044 
C          C       0.25341   0.29262   0.37367 
C          C       0.25584   0.27695   0.46412 
C          C       0.23867   0.27936   0.55475 
C          C       0.21878   0.29666   0.55469 
N          N       0.27754   0.26021   0.46163 
C          C       0.27528   0.23749   0.52804 
C          C       0.30020   0.22305   0.51909 
C          C       0.29641   0.19804   0.59096 
C          C       0.32017   0.18448   0.58541 
C          C       0.34837   0.19590   0.50823 
C          C       0.35207   0.22082   0.43595 
C          C       0.32813   0.23420   0.44106 
C          C       0.37436   0.18235   0.50462 
C          C       0.35931   0.14601   0.51545 
C          C       0.22962   0.84812   0.57443 
C          C       0.20880   0.86478   0.58394 
C          C       0.22810   0.90168   0.58518 
C          C       0.26837   0.92268   0.57497 
C          C       0.28946   0.90621   0.56827 
C          C       0.27024   0.86933   0.56810 
N          N       0.28684   0.96048   0.57246 
C          C       0.31967   0.98223   0.52783 
C          C       0.33604   0.02071   0.52731 
C          C       0.36745   0.04250   0.46290 
C          C       0.38301   0.07890   0.45903 
C          C       0.36765   0.09435   0.52026 
C          C       0.33639   0.07252   0.58566 
C          C       0.32067   0.03603   0.58903 
C          C       0.38387   0.13300   0.51426 
C          C       0.42398   0.15705   0.50459 
C          C       0.67078   0.28285   0.67130 
C          C       0.68461   0.28510   0.76527 
H          H       0.74842   0.32846   0.64751 
H          H       0.80411   0.34274   0.56961 
H          H       0.86901   0.35210   0.56184 
H          H       0.93858   0.39028   0.55171 
H          H       0.92726   0.47930   0.48613 
H          H       0.85795   0.44107   0.50482 
H          H       0.99356   0.42119   0.47642 
H          H       0.15365   0.29987   0.57615 
H          H       0.12144   0.33235   0.57692 
H          H       0.19635   0.40105   0.33544 
H          H       0.23048   0.37058   0.33382 
H          H       0.16138   0.42378   0.34791 
H          H       0.14307   0.46660   0.30627 
H          H       0.10363   0.49192   0.33520 
H          H       0.04324   0.41714   0.58017 
H          H       0.08248   0.39183   0.55140 
H          H       0.09450   0.52488   0.47303 
H          H       0.24814   0.80840   0.45764 
H          H       0.21375   0.74385   0.44737 
H          H       0.12985   0.73457   0.66612 
H          H       0.16461   0.79884   0.67985 
H          H       0.09318   0.68462   0.56477 
H          H       0.03678   0.62512   0.52015 
H          H       0.00733   0.56232   0.49482 
H          H       0.11936   0.57553   0.54288 
H          H       0.14840   0.63838   0.55764 
H          H       0.98458   0.50994   0.55126 
H          H       0.77935   0.41507   0.38129 
H          H       0.70935   0.36877   0.24495 
H          H       0.75370   0.41233   0.21613 
H          H       0.67339   0.34814   0.38944 
H          H       0.61449   0.30427   0.37546 
H          H       0.54757   0.28378   0.32487 
H          H       0.47739   0.24315   0.34441 
H          H       0.49606   0.19948   0.61688 
H          H       0.56605   0.24027   0.59853 
H          H       0.42629   0.23394   0.48434 
H          H       0.23193   0.32106   0.29817 
H          H       0.26707   0.29113   0.30441 
H          H       0.24129   0.26872   0.62652 
H          H       0.20677   0.29898   0.62589 
H          H       0.25472   0.22835   0.59058 
H          H       0.27523   0.18917   0.65203 
H          H       0.31705   0.16559   0.64270 
H          H       0.37337   0.22978   0.37518 
H          H       0.33168   0.25342   0.38438 
H          H       0.32830   0.12778   0.52182 
H          H       0.17750   0.84935   0.58795 
H          H       0.21153   0.91400   0.59147 
H          H       0.32073   0.92169   0.56437 
H          H       0.28728   0.85743   0.56361 
H          H       0.33457   0.97227   0.48509 
H          H       0.37963   0.03126   0.41427 
H          H       0.40664   0.09486   0.40658 
H          H       0.32428   0.08367   0.63488 
H          H       0.29662   0.01988   0.64012 
H          H       0.44337   0.14753   0.50546 
H          H       0.64240   0.26001   0.65403 
H          H       0.66787   0.26418   0.82029 
H          H       0.71191   0.30776   0.78950 
