data_crystal

_cell_length_a    36.21000
_cell_length_b    36.61000
_cell_length_c    7.48000
_cell_angle_alpha 90.00000
_cell_angle_beta  90.00000
_cell_angle_gamma 115.64000

_space_group_name_Hall 'P 1'
_space_group_name_H-M_alt  'P 1'

loop_
_symmetry_equiv_pos_as_xyz
'x,y,z' 

loop_
_atom_site_label
_atom_site_type_symbol
_atom_site_fract_x
_atom_site_fract_y
_atom_site_fract_z
C          C       0.39083   0.63719   0.20288 
C          C       0.60917   0.36281   0.20288 
C          C       0.43377   0.65835   0.15564 
C          C       0.56623   0.34165   0.15564 
C          C       0.45963   0.64071   0.18260 
C          C       0.54037   0.35929   0.18260 
C          C       0.44318   0.60134   0.25494 
C          C       0.55682   0.39866   0.25494 
C          C       0.40057   0.58026   0.30537 
C          C       0.59943   0.41974   0.30537 
C          C       0.37477   0.59805   0.28056 
C          C       0.62523   0.40195   0.28056 
C          C       0.47059   0.58250   0.27116 
C          C       0.52941   0.41750   0.27116 
N          N       0.45579   0.54548   0.33140 
N          N       0.54421   0.45452   0.33140 
C          C       0.47838   0.52281   0.34538 
C          C       0.52162   0.47719   0.34538 
C          C       0.45557   0.48011   0.35443 
C          C       0.54443   0.51989   0.35443 
C          C       0.52255   0.54230   0.35179 
C          C       0.47745   0.45770   0.35179 
C          C       0.36278   0.65513   0.16203 
C          C       0.63722   0.34487   0.16203 
C          C       0.37843   0.69737   0.16696 
C          C       0.62157   0.30263   0.16696 
C          C       0.37056   0.75954   0.11634 
C          C       0.62944   0.24046   0.11634 
C          C       0.34555   0.77690   0.17308 
C          C       0.65445   0.22310   0.17308 
C          C       0.36188   0.81901   0.17490 
C          C       0.63812   0.18099   0.17490 
C          C       0.40356   0.84468   0.12119 
C          C       0.59644   0.15532   0.12119 
C          C       0.42868   0.82749   0.06441 
C          C       0.57132   0.17251   0.06441 
C          C       0.41230   0.78537   0.06155 
C          C       0.58770   0.21463   0.06155 
C          C       0.42016   0.88907   0.12607 
C          C       0.57984   0.11093   0.12607 
N          N       0.45904   0.91360   0.08245 
N          N       0.54096   0.08640   0.08245 
C          C       0.47895   0.95718   0.08130 
C          C       0.52105   0.04282   0.08130 
C          C       0.52287   0.97887   0.07814 
C          C       0.47713   0.02113   0.07814 
C          C       0.45608   0.97871   0.07828 
C          C       0.54392   0.02129   0.07828 
C          C       0.35323   0.71473   0.11474 
C          C       0.64677   0.28527   0.11474 
C          C       0.31142   0.68920   0.06124 
C          C       0.68858   0.31080   0.06124 
C          C       0.24883   0.61980   0.02121 
C          C       0.75117   0.38020   0.02121 
C          C       0.23475   0.58093   0.44317 
C          C       0.76525   0.41907   0.44317 
C          C       0.19194   0.55484   0.41533 
C          C       0.80806   0.44516   0.41533 
C          C       0.16218   0.56705   0.46234 
C          C       0.83782   0.43295   0.46234 
C          C       0.17600   0.60611   0.03575 
C          C       0.82400   0.39389   0.03575 
C          C       0.21874   0.63202   0.06615 
C          C       0.78126   0.36798   0.06615 
C          C       0.11706   0.53844   0.43743 
C          C       0.88294   0.46156   0.43743 
N          N       0.08887   0.54917   0.47860 
N          N       0.91113   0.45083   0.47860 
C          C       0.04414   0.52373   0.46945 
C          C       0.95586   0.47627   0.46945 
C          C       0.01865   0.54230   0.47090 
C          C       0.98135   0.45770   0.47090 
C          C       0.02510   0.48105   0.47062 
C          C       0.97490   0.51895   0.47062 
C          C       0.29424   0.64675   0.06414 
C          C       0.70576   0.35325   0.06414 
C          C       0.32046   0.63017   0.11278 
C          C       0.67954   0.36983   0.11278 
C          C       0.40883   0.45938   0.35569 
C          C       0.59117   0.54062   0.35569 
C          C       0.38488   0.42223   0.42432 
C          C       0.61512   0.57777   0.42432 
H          H       0.44726   0.68800   0.09086 
H          H       0.55274   0.31200   0.09086 
H          H       0.49233   0.65745   0.14163 
H          H       0.50767   0.34255   0.14163 
H          H       0.38708   0.54996   0.36364 
H          H       0.61292   0.45004   0.36364 
H          H       0.34231   0.58107   0.32389 
H          H       0.65769   0.41893   0.32389 
H          H       0.50253   0.59935   0.22075 
H          H       0.49747   0.40065   0.22075 
H          H       0.53999   0.57501   0.35197 
H          H       0.46001   0.42499   0.35197 
H          H       0.41015   0.71687   0.21514 
H          H       0.58985   0.28313   0.21514 
H          H       0.31355   0.75797   0.21961 
H          H       0.68645   0.24203   0.21961 
H          H       0.34201   0.83158   0.22034 
H          H       0.65799   0.16842   0.22034 
H          H       0.46088   0.84652   0.02074 
H          H       0.53912   0.15348   0.02074 
H          H       0.43216   0.77303   0.01339 
H          H       0.56784   0.22697   0.01339 
H          H       0.39954   0.90066   0.17217 
H          H       0.60046   0.09934   0.17217 
H          H       0.54088   0.96274   0.07635 
H          H       0.45912   0.03726   0.07635 
H          H       0.42217   0.96320   0.07332 
H          H       0.57783   0.03680   0.07332 
H          H       0.29248   0.70257   0.01364 
H          H       0.70752   0.29743   0.01364 
H          H       0.25667   0.57057   0.40140 
H          H       0.74333   0.42943   0.40140 
H          H       0.18206   0.52503   0.35642 
H          H       0.81794   0.47497   0.35642 
H          H       0.15373   0.61631   0.07462 
H          H       0.84627   0.38369   0.07462 
H          H       0.22786   0.66108   0.13138 
H          H       0.77214   0.33892   0.13138 
H          H       0.10802   0.50845   0.38337 
H          H       0.89198   0.49155   0.38337 
H          H       0.03284   0.57509   0.47411 
H          H       0.96716   0.42491   0.47411 
H          H       0.04359   0.46550   0.47666 
H          H       0.95641   0.53450   0.47666 
H          H       0.30788   0.59765   0.11220 
H          H       0.69212   0.40235   0.11220 
H          H       0.39292   0.47537   0.30185 
H          H       0.60708   0.52463   0.30185 
H          H       0.35103   0.40922   0.42158 
H          H       0.64897   0.59078   0.42158 
H          H       0.39804   0.40479   0.48867 
H          H       0.60196   0.59521   0.48867 
C          C       0.39083   0.63719   0.70288 
C          C       0.60917   0.36281   0.70288 
C          C       0.43377   0.65835   0.65564 
C          C       0.56623   0.34165   0.65564 
C          C       0.45963   0.64071   0.68260 
C          C       0.54037   0.35929   0.68260 
C          C       0.44318   0.60134   0.75494 
C          C       0.55682   0.39866   0.75494 
C          C       0.40057   0.58026   0.80537 
C          C       0.59943   0.41974   0.80537 
C          C       0.37477   0.59805   0.78056 
C          C       0.62523   0.40195   0.78056 
C          C       0.47059   0.58250   0.77116 
C          C       0.52941   0.41750   0.77116 
N          N       0.45579   0.54548   0.83140 
N          N       0.54421   0.45452   0.83140 
C          C       0.47838   0.52281   0.84538 
C          C       0.52162   0.47719   0.84538 
C          C       0.45557   0.48011   0.85443 
C          C       0.54443   0.51989   0.85443 
C          C       0.52255   0.54230   0.85180 
C          C       0.47745   0.45770   0.85180 
C          C       0.36278   0.65513   0.66203 
C          C       0.63722   0.34487   0.66203 
C          C       0.37843   0.69737   0.66696 
C          C       0.62157   0.30263   0.66696 
C          C       0.37056   0.75954   0.61634 
C          C       0.62944   0.24046   0.61634 
C          C       0.34555   0.77690   0.67308 
C          C       0.65445   0.22310   0.67308 
C          C       0.36188   0.81901   0.67490 
C          C       0.63812   0.18099   0.67490 
C          C       0.40356   0.84468   0.62119 
C          C       0.59644   0.15532   0.62119 
C          C       0.42868   0.82749   0.56440 
C          C       0.57132   0.17251   0.56440 
C          C       0.41230   0.78537   0.56155 
C          C       0.58770   0.21463   0.56155 
C          C       0.42016   0.88907   0.62606 
C          C       0.57984   0.11093   0.62606 
N          N       0.45904   0.91360   0.58245 
N          N       0.54096   0.08640   0.58245 
C          C       0.47895   0.95718   0.58130 
C          C       0.52105   0.04282   0.58130 
C          C       0.52287   0.97887   0.57814 
C          C       0.47713   0.02113   0.57814 
C          C       0.45608   0.97871   0.57828 
C          C       0.54392   0.02129   0.57828 
C          C       0.35323   0.71473   0.61474 
C          C       0.64677   0.28527   0.61474 
C          C       0.31142   0.68920   0.56124 
C          C       0.68858   0.31080   0.56124 
C          C       0.24883   0.61980   0.52121 
C          C       0.75117   0.38020   0.52121 
C          C       0.23475   0.58093   0.94317 
C          C       0.76525   0.41907   0.94317 
C          C       0.19194   0.55484   0.91533 
C          C       0.80806   0.44516   0.91533 
C          C       0.16218   0.56705   0.96234 
C          C       0.83782   0.43295   0.96234 
C          C       0.17600   0.60611   0.53575 
C          C       0.82400   0.39389   0.53575 
C          C       0.21874   0.63202   0.56615 
C          C       0.78126   0.36798   0.56615 
C          C       0.11706   0.53844   0.93743 
C          C       0.88294   0.46156   0.93743 
N          N       0.08887   0.54917   0.97860 
N          N       0.91113   0.45083   0.97860 
C          C       0.04414   0.52373   0.96945 
C          C       0.95586   0.47627   0.96945 
C          C       0.01865   0.54230   0.97090 
C          C       0.98135   0.45770   0.97090 
C          C       0.02510   0.48105   0.97062 
C          C       0.97490   0.51895   0.97062 
C          C       0.29424   0.64675   0.56414 
C          C       0.70576   0.35325   0.56414 
C          C       0.32046   0.63017   0.61277 
C          C       0.67954   0.36983   0.61277 
C          C       0.40883   0.45938   0.85568 
C          C       0.59117   0.54062   0.85568 
C          C       0.38488   0.42223   0.92432 
C          C       0.61512   0.57777   0.92432 
H          H       0.44726   0.68800   0.59086 
H          H       0.55274   0.31200   0.59086 
H          H       0.49233   0.65745   0.64163 
H          H       0.50767   0.34255   0.64163 
H          H       0.38708   0.54996   0.86364 
H          H       0.61292   0.45004   0.86364 
H          H       0.34231   0.58107   0.82389 
H          H       0.65769   0.41893   0.82389 
H          H       0.50253   0.59935   0.72075 
H          H       0.49747   0.40065   0.72075 
H          H       0.53999   0.57501   0.85197 
H          H       0.46001   0.42499   0.85197 
H          H       0.41015   0.71687   0.71513 
H          H       0.58985   0.28313   0.71513 
H          H       0.31355   0.75797   0.71960 
H          H       0.68645   0.24203   0.71960 
H          H       0.34201   0.83158   0.72034 
H          H       0.65799   0.16842   0.72034 
H          H       0.46088   0.84652   0.52074 
H          H       0.53912   0.15348   0.52074 
H          H       0.43216   0.77303   0.51339 
H          H       0.56784   0.22697   0.51339 
H          H       0.39954   0.90066   0.67217 
H          H       0.60046   0.09934   0.67217 
H          H       0.54088   0.96274   0.57635 
H          H       0.45912   0.03726   0.57635 
H          H       0.42217   0.96320   0.57332 
H          H       0.57783   0.03680   0.57332 
H          H       0.29248   0.70257   0.51364 
H          H       0.70752   0.29743   0.51364 
H          H       0.25667   0.57057   0.90140 
H          H       0.74333   0.42943   0.90140 
H          H       0.18206   0.52503   0.85642 
H          H       0.81794   0.47497   0.85642 
H          H       0.15373   0.61631   0.57462 
H          H       0.84627   0.38369   0.57462 
H          H       0.22786   0.66108   0.63137 
H          H       0.77214   0.33892   0.63137 
H          H       0.10802   0.50845   0.88337 
H          H       0.89198   0.49155   0.88337 
H          H       0.03284   0.57509   0.97411 
H          H       0.96716   0.42491   0.97411 
H          H       0.04359   0.46550   0.97666 
H          H       0.95641   0.53450   0.97666 
H          H       0.30788   0.59765   0.61220 
H          H       0.69212   0.40235   0.61220 
H          H       0.39292   0.47537   0.80185 
H          H       0.60708   0.52463   0.80185 
H          H       0.35103   0.40922   0.92158 
H          H       0.64897   0.59078   0.92158 
H          H       0.39804   0.40479   0.98867 
H          H       0.60196   0.59521   0.98867 
