data_crystal

_cell_length_a    34.77620
_cell_length_b    34.77620
_cell_length_c    7.22200
_cell_angle_alpha 90.00000
_cell_angle_beta  90.00000
_cell_angle_gamma 120.00000

_space_group_name_Hall 'P 1'
_space_group_name_H-M_alt  'P 1'

loop_
_symmetry_equiv_pos_as_xyz
'x,y,z' 

loop_
_atom_site_label
_atom_site_type_symbol
_atom_site_fract_x
_atom_site_fract_y
_atom_site_fract_z
C          C       0.48191   0.48325   0.24026 
C          C       0.51675   0.99866   0.24026 
C          C       0.00134   0.51809   0.24026 
C          C       0.51809   0.51675   0.24026 
C          C       0.48325   0.00134   0.24026 
C          C       0.99866   0.48191   0.24026 
C          C       0.55441   0.51297   0.21347 
C          C       0.48703   0.04144   0.21347 
C          C       0.95856   0.44559   0.21347 
C          C       0.44559   0.48703   0.21347 
C          C       0.51297   0.95856   0.21347 
C          C       0.04144   0.55441   0.21347 
C          C       0.52066   0.55641   0.27078 
C          C       0.44359   0.96425   0.27078 
C          C       0.03575   0.47934   0.27078 
C          C       0.47934   0.44359   0.27078 
C          C       0.55641   0.03575   0.27078 
C          C       0.96425   0.52066   0.27078 
C          C       0.59020   0.54403   0.14622 
C          C       0.45597   0.04617   0.14622 
C          C       0.95383   0.40980   0.14622 
C          C       0.40980   0.45597   0.14622 
C          C       0.54403   0.95383   0.14622 
C          C       0.04617   0.59020   0.14622 
C          C       0.62475   0.54203   0.14615 
C          C       0.45797   0.08272   0.14615 
C          C       0.91728   0.37525   0.14615 
C          C       0.37525   0.45797   0.14615 
C          C       0.54203   0.91728   0.14615 
C          C       0.08272   0.62475   0.14615 
C          C       0.62425   0.50820   0.21050 
C          C       0.49180   0.11605   0.21050 
C          C       0.88395   0.37575   0.21050 
C          C       0.37575   0.49180   0.21050 
C          C       0.50820   0.88395   0.21050 
C          C       0.11605   0.62425   0.21050 
C          C       0.58821   0.47561   0.25643 
C          C       0.52439   0.11260   0.25643 
C          C       0.88740   0.41179   0.25643 
C          C       0.41179   0.52439   0.25643 
C          C       0.47561   0.88740   0.25643 
C          C       0.11260   0.58821   0.25643 
C          C       0.55272   0.47667   0.24483 
C          C       0.52333   0.07605   0.24483 
C          C       0.92395   0.44728   0.24483 
C          C       0.44728   0.52333   0.24483 
C          C       0.47667   0.92395   0.24483 
C          C       0.07605   0.55272   0.24483 
C          C       0.44374   0.40906   0.31647 
C          C       0.59094   0.03468   0.31647 
C          C       0.96532   0.55626   0.31647 
C          C       0.55626   0.59094   0.31647 
C          C       0.40906   0.96532   0.31647 
C          C       0.03468   0.44374   0.31647 
C          C       0.44115   0.37230   0.32466 
C          C       0.62770   0.06885   0.32466 
C          C       0.93115   0.55885   0.32466 
C          C       0.55885   0.62770   0.32466 
C          C       0.37230   0.93115   0.32466 
C          C       0.06885   0.44115   0.32466 
C          C       0.47408   0.36870   0.29347 
C          C       0.63130   0.10538   0.29347 
C          C       0.89462   0.52592   0.29347 
C          C       0.52592   0.63130   0.29347 
C          C       0.36870   0.89462   0.29347 
C          C       0.10538   0.47408   0.29347 
C          C       0.51035   0.40275   0.26260 
C          C       0.59725   0.10760   0.26260 
C          C       0.89240   0.48965   0.26260 
C          C       0.48965   0.59725   0.26260 
C          C       0.40275   0.89240   0.26260 
C          C       0.10760   0.51035   0.26260 
C          C       0.51377   0.44046   0.26291 
C          C       0.55954   0.07331   0.26291 
C          C       0.92669   0.48623   0.26291 
C          C       0.48623   0.55954   0.26291 
C          C       0.44046   0.92669   0.26291 
C          C       0.07331   0.51377   0.26291 
N          N       0.65911   0.50510   0.22983 
N          N       0.49490   0.15401   0.22983 
N          N       0.84599   0.34089   0.22983 
N          N       0.34089   0.49490   0.22983 
N          N       0.50510   0.84599   0.22983 
N          N       0.15401   0.65911   0.22983 
N          N       0.46921   0.32992   0.28364 
N          N       0.67008   0.13929   0.28364 
N          N       0.86071   0.53079   0.28364 
N          N       0.53079   0.67008   0.28364 
N          N       0.32992   0.86071   0.28364 
N          N       0.13929   0.46921   0.28364 
C          C       0.49663   0.32108   0.31199 
C          C       0.67892   0.17555   0.31199 
C          C       0.82445   0.50337   0.31199 
C          C       0.50337   0.67892   0.31199 
C          C       0.32108   0.82445   0.31199 
C          C       0.17555   0.49663   0.31199 
C          C       0.69535   0.53248   0.20042 
C          C       0.46752   0.16287   0.20042 
C          C       0.83713   0.30465   0.20042 
C          C       0.30465   0.46752   0.20042 
C          C       0.53248   0.83713   0.20042 
C          C       0.16287   0.69535   0.20042 
H          H       0.59210   0.57034   0.09388 
H          H       0.42966   0.02176   0.09388 
H          H       0.97824   0.40790   0.09388 
H          H       0.40790   0.42966   0.09388 
H          H       0.57034   0.97824   0.09388 
H          H       0.02176   0.59210   0.09388 
H          H       0.65141   0.56709   0.09676 
H          H       0.43291   0.08432   0.09676 
H          H       0.91568   0.34859   0.09676 
H          H       0.34859   0.43291   0.09676 
H          H       0.56709   0.91568   0.09676 
H          H       0.08432   0.65141   0.09676 
H          H       0.58881   0.44988   0.30374 
H          H       0.55012   0.13893   0.30374 
H          H       0.86107   0.41119   0.30374 
H          H       0.41119   0.55012   0.30374 
H          H       0.44988   0.86107   0.30374 
H          H       0.13893   0.58881   0.30374 
H          H       0.41715   0.40928   0.34580 
H          H       0.59072   0.00787   0.34580 
H          H       0.99213   0.58285   0.34580 
H          H       0.58285   0.59072   0.34580 
H          H       0.40928   0.99213   0.34580 
H          H       0.00787   0.41715   0.34580 
H          H       0.41317   0.34619   0.35331 
H          H       0.65381   0.06698   0.35331 
H          H       0.93302   0.58683   0.35331 
H          H       0.58683   0.65381   0.35331 
H          H       0.34619   0.93302   0.35331 
H          H       0.06698   0.41317   0.35331 
H          H       0.53515   0.39927   0.22928 
H          H       0.60073   0.13588   0.22928 
H          H       0.86412   0.46485   0.22928 
H          H       0.46485   0.60073   0.22928 
H          H       0.39927   0.86412   0.22928 
H          H       0.13588   0.53515   0.22928 
H          H       0.70243   0.56149   0.15516 
H          H       0.43851   0.14094   0.15516 
H          H       0.85906   0.29757   0.15516 
H          H       0.29757   0.43851   0.15516 
H          H       0.56149   0.85906   0.15516 
H          H       0.14094   0.70243   0.15516 
C          C       0.72818   0.52481   0.23065 
C          C       0.47519   0.20337   0.23065 
C          C       0.79663   0.27182   0.23065 
C          C       0.27182   0.47519   0.23065 
C          C       0.52481   0.79663   0.23065 
C          C       0.20337   0.72818   0.23065 
C          C       0.76693   0.55452   0.19345 
C          C       0.44548   0.21241   0.19345 
C          C       0.78759   0.23307   0.19345 
C          C       0.23307   0.44548   0.19345 
C          C       0.55452   0.78759   0.19345 
C          C       0.21241   0.76693   0.19345 
C          C       0.79842   0.54785   0.22085 
C          C       0.45215   0.25057   0.22085 
C          C       0.74943   0.20158   0.22085 
C          C       0.20158   0.45215   0.22085 
C          C       0.54785   0.74943   0.22085 
C          C       0.25057   0.79842   0.22085 
C          C       0.79169   0.51129   0.28614 
C          C       0.48871   0.28040   0.28614 
C          C       0.71960   0.20831   0.28614 
C          C       0.20831   0.48871   0.28614 
C          C       0.51129   0.71960   0.28614 
C          C       0.28040   0.79169   0.28614 
C          C       0.75295   0.48161   0.32394 
C          C       0.51839   0.27134   0.32394 
C          C       0.72866   0.24705   0.32394 
C          C       0.24705   0.51839   0.32394 
C          C       0.48161   0.72866   0.32394 
C          C       0.27134   0.75295   0.32394 
C          C       0.72145   0.48829   0.29657 
C          C       0.51171   0.23316   0.29657 
C          C       0.76684   0.27855   0.29657 
C          C       0.27855   0.51171   0.29657 
C          C       0.48829   0.76684   0.29657 
C          C       0.23316   0.72145   0.29657 
H          H       0.77280   0.58279   0.14136 
H          H       0.41721   0.19001   0.14136 
H          H       0.80999   0.22720   0.14136 
H          H       0.22720   0.41721   0.14136 
H          H       0.58279   0.80999   0.14136 
H          H       0.19001   0.77280   0.14136 
H          H       0.82803   0.57105   0.18893 
H          H       0.42895   0.25698   0.18893 
H          H       0.74302   0.17197   0.18893 
H          H       0.17197   0.42895   0.18893 
H          H       0.57105   0.74302   0.18893 
H          H       0.25698   0.82803   0.18893 
H          H       0.74708   0.45329   0.37537 
H          H       0.54671   0.29379   0.37537 
H          H       0.70621   0.25292   0.37537 
H          H       0.25292   0.54671   0.37537 
H          H       0.45329   0.70621   0.37537 
H          H       0.29379   0.74708   0.37537 
H          H       0.69183   0.46504   0.32787 
H          H       0.53496   0.22679   0.32787 
H          H       0.77321   0.30817   0.32787 
H          H       0.30817   0.53496   0.32787 
H          H       0.46504   0.77321   0.32787 
H          H       0.22679   0.69183   0.32787 
H          H       0.47430   0.65667   0.35646 
H          H       0.34333   0.81763   0.35646 
H          H       0.18237   0.52570   0.35646 
H          H       0.52570   0.34333   0.35646 
H          H       0.65667   0.18237   0.35646 
H          H       0.81763   0.47430   0.35646 
C          C       0.48191   0.48325   0.74026 
C          C       0.51675   0.99866   0.74026 
C          C       0.00134   0.51809   0.74026 
C          C       0.51809   0.51675   0.74026 
C          C       0.48325   0.00134   0.74026 
C          C       0.99866   0.48191   0.74026 
C          C       0.55441   0.51297   0.71347 
C          C       0.48703   0.04144   0.71347 
C          C       0.95856   0.44559   0.71347 
C          C       0.44559   0.48703   0.71347 
C          C       0.51297   0.95856   0.71347 
C          C       0.04144   0.55441   0.71347 
C          C       0.52066   0.55641   0.77078 
C          C       0.44359   0.96425   0.77078 
C          C       0.03575   0.47934   0.77078 
C          C       0.47934   0.44359   0.77078 
C          C       0.55641   0.03575   0.77078 
C          C       0.96425   0.52066   0.77078 
C          C       0.59020   0.54403   0.64622 
C          C       0.45597   0.04617   0.64622 
C          C       0.95383   0.40980   0.64622 
C          C       0.40980   0.45597   0.64622 
C          C       0.54403   0.95383   0.64622 
C          C       0.04617   0.59020   0.64622 
C          C       0.62475   0.54203   0.64615 
C          C       0.45797   0.08272   0.64615 
C          C       0.91728   0.37525   0.64615 
C          C       0.37525   0.45797   0.64615 
C          C       0.54203   0.91728   0.64615 
C          C       0.08272   0.62475   0.64615 
C          C       0.62425   0.50820   0.71051 
C          C       0.49180   0.11605   0.71051 
C          C       0.88395   0.37575   0.71051 
C          C       0.37575   0.49180   0.71051 
C          C       0.50820   0.88395   0.71051 
C          C       0.11605   0.62425   0.71051 
C          C       0.58821   0.47561   0.75643 
C          C       0.52439   0.11260   0.75643 
C          C       0.88740   0.41179   0.75643 
C          C       0.41179   0.52439   0.75643 
C          C       0.47561   0.88740   0.75643 
C          C       0.11260   0.58821   0.75643 
C          C       0.55272   0.47667   0.74483 
C          C       0.52333   0.07605   0.74483 
C          C       0.92395   0.44728   0.74483 
C          C       0.44728   0.52333   0.74483 
C          C       0.47667   0.92395   0.74483 
C          C       0.07605   0.55272   0.74483 
C          C       0.44374   0.40906   0.81647 
C          C       0.59094   0.03468   0.81647 
C          C       0.96532   0.55626   0.81647 
C          C       0.55626   0.59094   0.81647 
C          C       0.40906   0.96532   0.81647 
C          C       0.03468   0.44374   0.81647 
C          C       0.44115   0.37230   0.82466 
C          C       0.62770   0.06885   0.82466 
C          C       0.93115   0.55885   0.82466 
C          C       0.55885   0.62770   0.82466 
C          C       0.37230   0.93115   0.82466 
C          C       0.06885   0.44115   0.82466 
C          C       0.47408   0.36870   0.79348 
C          C       0.63130   0.10538   0.79348 
C          C       0.89462   0.52592   0.79348 
C          C       0.52592   0.63130   0.79348 
C          C       0.36870   0.89462   0.79348 
C          C       0.10538   0.47408   0.79348 
C          C       0.51035   0.40275   0.76260 
C          C       0.59725   0.10760   0.76260 
C          C       0.89240   0.48965   0.76260 
C          C       0.48965   0.59725   0.76260 
C          C       0.40275   0.89240   0.76260 
C          C       0.10760   0.51035   0.76260 
C          C       0.51377   0.44046   0.76291 
C          C       0.55954   0.07331   0.76291 
C          C       0.92669   0.48623   0.76291 
C          C       0.48623   0.55954   0.76291 
C          C       0.44046   0.92669   0.76291 
C          C       0.07331   0.51377   0.76291 
N          N       0.65911   0.50510   0.72983 
N          N       0.49490   0.15401   0.72983 
N          N       0.84599   0.34089   0.72983 
N          N       0.34089   0.49490   0.72983 
N          N       0.50510   0.84599   0.72983 
N          N       0.15401   0.65911   0.72983 
N          N       0.46921   0.32992   0.78365 
N          N       0.67008   0.13929   0.78365 
N          N       0.86071   0.53079   0.78365 
N          N       0.53079   0.67008   0.78365 
N          N       0.32992   0.86071   0.78365 
N          N       0.13929   0.46921   0.78365 
C          C       0.49663   0.32108   0.81199 
C          C       0.67892   0.17555   0.81199 
C          C       0.82445   0.50337   0.81199 
C          C       0.50337   0.67892   0.81199 
C          C       0.32108   0.82445   0.81199 
C          C       0.17555   0.49663   0.81199 
C          C       0.69535   0.53248   0.70042 
C          C       0.46752   0.16287   0.70042 
C          C       0.83713   0.30465   0.70042 
C          C       0.30465   0.46752   0.70042 
C          C       0.53248   0.83713   0.70042 
C          C       0.16287   0.69535   0.70042 
H          H       0.59210   0.57034   0.59388 
H          H       0.42966   0.02176   0.59388 
H          H       0.97824   0.40790   0.59388 
H          H       0.40790   0.42966   0.59388 
H          H       0.57034   0.97824   0.59388 
H          H       0.02176   0.59210   0.59388 
H          H       0.65141   0.56709   0.59676 
H          H       0.43291   0.08432   0.59676 
H          H       0.91568   0.34859   0.59676 
H          H       0.34859   0.43291   0.59676 
H          H       0.56709   0.91568   0.59676 
H          H       0.08432   0.65141   0.59676 
H          H       0.58881   0.44988   0.80374 
H          H       0.55012   0.13893   0.80374 
H          H       0.86107   0.41119   0.80374 
H          H       0.41119   0.55012   0.80374 
H          H       0.44988   0.86107   0.80374 
H          H       0.13893   0.58881   0.80374 
H          H       0.41715   0.40928   0.84580 
H          H       0.59072   0.00787   0.84580 
H          H       0.99213   0.58285   0.84580 
H          H       0.58285   0.59072   0.84580 
H          H       0.40928   0.99213   0.84580 
H          H       0.00787   0.41715   0.84580 
H          H       0.41317   0.34619   0.85331 
H          H       0.65381   0.06698   0.85331 
H          H       0.93302   0.58683   0.85331 
H          H       0.58683   0.65381   0.85331 
H          H       0.34619   0.93302   0.85331 
H          H       0.06698   0.41317   0.85331 
H          H       0.53515   0.39927   0.72928 
H          H       0.60073   0.13588   0.72928 
H          H       0.86412   0.46485   0.72928 
H          H       0.46485   0.60073   0.72928 
H          H       0.39927   0.86412   0.72928 
H          H       0.13588   0.53515   0.72928 
H          H       0.70243   0.56149   0.65516 
H          H       0.43851   0.14094   0.65516 
H          H       0.85906   0.29757   0.65516 
H          H       0.29757   0.43851   0.65516 
H          H       0.56149   0.85906   0.65516 
H          H       0.14094   0.70243   0.65516 
C          C       0.72818   0.52481   0.73065 
C          C       0.47519   0.20337   0.73065 
C          C       0.79663   0.27182   0.73065 
C          C       0.27182   0.47519   0.73065 
C          C       0.52481   0.79663   0.73065 
C          C       0.20337   0.72818   0.73065 
C          C       0.76693   0.55452   0.69346 
C          C       0.44548   0.21241   0.69346 
C          C       0.78759   0.23307   0.69346 
C          C       0.23307   0.44548   0.69346 
C          C       0.55452   0.78759   0.69346 
C          C       0.21241   0.76693   0.69346 
C          C       0.79842   0.54785   0.72085 
C          C       0.45215   0.25057   0.72085 
C          C       0.74943   0.20158   0.72085 
C          C       0.20158   0.45215   0.72085 
C          C       0.54785   0.74943   0.72085 
C          C       0.25057   0.79842   0.72085 
C          C       0.79169   0.51129   0.78614 
C          C       0.48871   0.28040   0.78614 
C          C       0.71960   0.20831   0.78614 
C          C       0.20831   0.48871   0.78614 
C          C       0.51129   0.71960   0.78614 
C          C       0.28040   0.79169   0.78614 
C          C       0.75295   0.48161   0.82393 
C          C       0.51839   0.27134   0.82393 
C          C       0.72866   0.24705   0.82393 
C          C       0.24705   0.51839   0.82393 
C          C       0.48161   0.72866   0.82393 
C          C       0.27134   0.75295   0.82393 
C          C       0.72145   0.48829   0.79658 
C          C       0.51171   0.23316   0.79658 
C          C       0.76684   0.27855   0.79658 
C          C       0.27855   0.51171   0.79658 
C          C       0.48829   0.76684   0.79658 
C          C       0.23316   0.72145   0.79658 
H          H       0.77280   0.58279   0.64137 
H          H       0.41721   0.19001   0.64137 
H          H       0.80999   0.22720   0.64137 
H          H       0.22720   0.41721   0.64137 
H          H       0.58279   0.80999   0.64137 
H          H       0.19001   0.77280   0.64137 
H          H       0.82803   0.57105   0.68893 
H          H       0.42895   0.25698   0.68893 
H          H       0.74302   0.17197   0.68893 
H          H       0.17197   0.42895   0.68893 
H          H       0.57105   0.74302   0.68893 
H          H       0.25698   0.82803   0.68893 
H          H       0.74708   0.45329   0.87537 
H          H       0.54671   0.29379   0.87537 
H          H       0.70621   0.25292   0.87537 
H          H       0.25292   0.54671   0.87537 
H          H       0.45329   0.70621   0.87537 
H          H       0.29379   0.74708   0.87537 
H          H       0.69183   0.46504   0.82787 
H          H       0.53496   0.22679   0.82787 
H          H       0.77321   0.30817   0.82787 
H          H       0.30817   0.53496   0.82787 
H          H       0.46504   0.77321   0.82787 
H          H       0.22679   0.69183   0.82787 
H          H       0.47430   0.65667   0.85646 
H          H       0.34333   0.81763   0.85646 
H          H       0.18237   0.52570   0.85646 
H          H       0.52570   0.34333   0.85646 
H          H       0.65667   0.18237   0.85646 
H          H       0.81763   0.47430   0.85646 
