data_crystal

_cell_length_a    40.44400
_cell_length_b    40.44400
_cell_length_c    7.56400
_cell_angle_alpha 90.00000
_cell_angle_beta  90.00000
_cell_angle_gamma 120.00000

_space_group_name_Hall 'P 1'
_space_group_name_H-M_alt  'P 1'

loop_
_symmetry_equiv_pos_as_xyz
'x,y,z' 

loop_
_atom_site_label
_atom_site_type_symbol
_atom_site_fract_x
_atom_site_fract_y
_atom_site_fract_z
C          C       0.03380   0.48331   0.27557 
C          C       0.51669   0.55049   0.27557 
C          C       0.44951   0.96620   0.27557 
C          C       0.96620   0.51669   0.27557 
C          C       0.48331   0.44951   0.27557 
C          C       0.55049   0.03380   0.27557 
C          C       0.03593   0.45208   0.33010 
C          C       0.54792   0.58385   0.33010 
C          C       0.41615   0.96407   0.33010 
C          C       0.96407   0.54792   0.33010 
C          C       0.45208   0.41615   0.33010 
C          C       0.58385   0.03593   0.33010 
C          C       0.06869   0.45123   0.33722 
C          C       0.54877   0.61746   0.33722 
C          C       0.38254   0.93131   0.33722 
C          C       0.93131   0.54877   0.33722 
C          C       0.45123   0.38254   0.33722 
C          C       0.61746   0.06869   0.33722 
C          C       0.10173   0.48243   0.29465 
C          C       0.51757   0.61930   0.29465 
C          C       0.38070   0.89827   0.29465 
C          C       0.89827   0.51757   0.29465 
C          C       0.48243   0.38070   0.29465 
C          C       0.61930   0.10173   0.29465 
C          C       0.10105   0.51468   0.25660 
C          C       0.48532   0.58637   0.25660 
C          C       0.41363   0.89895   0.25660 
C          C       0.89895   0.48532   0.25660 
C          C       0.51468   0.41363   0.25660 
C          C       0.58637   0.10105   0.25660 
C          C       0.06812   0.51646   0.25843 
C          C       0.48354   0.55166   0.25843 
C          C       0.44834   0.93188   0.25843 
C          C       0.93188   0.48354   0.25843 
C          C       0.51646   0.44834   0.25843 
C          C       0.55166   0.06812   0.25843 
N          N       0.13190   0.47895   0.29125 
N          N       0.52105   0.65295   0.29125 
N          N       0.34705   0.86810   0.29125 
N          N       0.86810   0.52105   0.29125 
N          N       0.47895   0.34705   0.29125 
N          N       0.65295   0.13190   0.29125 
C          C       0.16786   0.50433   0.28327 
C          C       0.49567   0.66353   0.28327 
C          C       0.33647   0.83214   0.28327 
C          C       0.83214   0.49567   0.28327 
C          C       0.50433   0.33647   0.28327 
C          C       0.66353   0.16786   0.28327 
C          C       0.19472   0.49415   0.26825 
C          C       0.50585   0.70057   0.26825 
C          C       0.29943   0.80528   0.26825 
C          C       0.80528   0.50585   0.26825 
C          C       0.49415   0.29943   0.26825 
C          C       0.70057   0.19472   0.26825 
S          S       0.18458   0.44890   0.23463 
S          S       0.55110   0.73568   0.23463 
S          S       0.26432   0.81542   0.23463 
S          S       0.81542   0.55110   0.23463 
S          S       0.44890   0.26432   0.23463 
S          S       0.73568   0.18458   0.23463 
C          C       0.23115   0.46555   0.22737 
C          C       0.53445   0.76560   0.22737 
C          C       0.23440   0.76885   0.22737 
C          C       0.76885   0.53445   0.22737 
C          C       0.46555   0.23440   0.22737 
C          C       0.76560   0.23115   0.22737 
C          C       0.25258   0.50249   0.25180 
C          C       0.49751   0.75009   0.25180 
C          C       0.24991   0.74742   0.25180 
C          C       0.74742   0.49751   0.25180 
C          C       0.50249   0.24991   0.25180 
C          C       0.75009   0.25258   0.25180 
C          C       0.23222   0.51956   0.27538 
C          C       0.48044   0.71266   0.27538 
C          C       0.28734   0.76778   0.27538 
C          C       0.76778   0.48044   0.27538 
C          C       0.51956   0.28734   0.27538 
C          C       0.71266   0.23222   0.27538 
C          C       0.25154   0.44857   0.20104 
C          C       0.55143   0.80297   0.20104 
C          C       0.19703   0.74846   0.20104 
C          C       0.74846   0.55143   0.20104 
C          C       0.44857   0.19703   0.20104 
C          C       0.80297   0.25154   0.20104 
C          C       0.28904   0.47401   0.20810 
C          C       0.52599   0.81503   0.20810 
C          C       0.18497   0.71096   0.20810 
C          C       0.71096   0.52599   0.20810 
C          C       0.47401   0.18497   0.20810 
C          C       0.81503   0.28904   0.20810 
S          S       0.29915   0.51912   0.24653 
S          S       0.48088   0.78003   0.24653 
S          S       0.21997   0.70085   0.24653 
S          S       0.70085   0.48088   0.24653 
S          S       0.51912   0.21997   0.24653 
S          S       0.78003   0.29915   0.24653 
C          C       0.31599   0.46407   0.18770 
C          C       0.53593   0.85192   0.18770 
C          C       0.14808   0.68401   0.18770 
C          C       0.68401   0.53593   0.18770 
C          C       0.46407   0.14808   0.18770 
C          C       0.85192   0.31599   0.18770 
C          C       0.48282   0.48310   0.24672 
C          C       0.51690   0.99972   0.24672 
C          C       0.00028   0.51718   0.24672 
C          C       0.51718   0.51690   0.24672 
C          C       0.48310   0.00028   0.24672 
C          C       0.99972   0.48282   0.24672 
N          N       0.44993   0.48486   0.21761 
N          N       0.51514   0.96507   0.21761 
N          N       0.03493   0.55007   0.21761 
N          N       0.55007   0.51514   0.21761 
N          N       0.48486   0.03493   0.21761 
N          N       0.96507   0.44993   0.21761 
C          C       0.44981   0.51846   0.23852 
C          C       0.48154   0.93135   0.23852 
C          C       0.06865   0.55019   0.23852 
C          C       0.55019   0.48154   0.23852 
C          C       0.51846   0.06865   0.23852 
C          C       0.93135   0.44981   0.23852 
C          C       0.41555   0.51758   0.24217 
C          C       0.48242   0.89797   0.24217 
C          C       0.10203   0.58445   0.24217 
C          C       0.58445   0.48242   0.24217 
C          C       0.51758   0.10203   0.24217 
C          C       0.89797   0.41555   0.24217 
C          C       0.38229   0.48620   0.20063 
C          C       0.51380   0.89609   0.20063 
C          C       0.10391   0.61771   0.20063 
C          C       0.61771   0.51380   0.20063 
C          C       0.48620   0.10391   0.20063 
C          C       0.89609   0.38229   0.20063 
C          C       0.38319   0.45469   0.15137 
C          C       0.54531   0.92850   0.15137 
C          C       0.07150   0.61681   0.15137 
C          C       0.61681   0.54531   0.15137 
C          C       0.45469   0.07150   0.15137 
C          C       0.92850   0.38319   0.15137 
C          C       0.41632   0.45455   0.15851 
C          C       0.54545   0.96177   0.15851 
C          C       0.03823   0.58368   0.15851 
C          C       0.58368   0.54545   0.15851 
C          C       0.45455   0.03823   0.15851 
C          C       0.96177   0.41632   0.15851 
N          N       0.35176   0.48897   0.21023 
N          N       0.51103   0.86279   0.21023 
N          N       0.13721   0.64824   0.21023 
N          N       0.64824   0.51103   0.21023 
N          N       0.48897   0.13721   0.21023 
N          N       0.86279   0.35176   0.21023 
H          H       0.06849   0.42769   0.37282 
H          H       0.57231   0.64080   0.37282 
H          H       0.35920   0.93151   0.37282 
H          H       0.93151   0.57231   0.37282 
H          H       0.42769   0.35920   0.37282 
H          H       0.64080   0.06849   0.37282 
H          H       0.12536   0.53671   0.22297 
H          H       0.46329   0.58865   0.22297 
H          H       0.41135   0.87464   0.22297 
H          H       0.87464   0.46329   0.22297 
H          H       0.53671   0.41135   0.22297 
H          H       0.58865   0.12536   0.22297 
H          H       0.17600   0.53155   0.28819 
H          H       0.46845   0.64445   0.28819 
H          H       0.35555   0.82400   0.28819 
H          H       0.82400   0.46845   0.28819 
H          H       0.53155   0.35555   0.28819 
H          H       0.64445   0.17600   0.28819 
H          H       0.24348   0.54707   0.29463 
H          H       0.45293   0.69641   0.29463 
H          H       0.30359   0.75652   0.29463 
H          H       0.75652   0.45293   0.29463 
H          H       0.54707   0.30359   0.29463 
H          H       0.69641   0.24348   0.29463 
H          H       0.24031   0.42112   0.17992 
H          H       0.57888   0.81919   0.17992 
H          H       0.18081   0.75969   0.17992 
H          H       0.75969   0.57888   0.17992 
H          H       0.42112   0.18081   0.17992 
H          H       0.81919   0.24031   0.17992 
H          H       0.30814   0.43753   0.15751 
H          H       0.56247   0.87061   0.15751 
H          H       0.12939   0.69186   0.15751 
H          H       0.69186   0.56247   0.15751 
H          H       0.43753   0.12939   0.15751 
H          H       0.87061   0.30814   0.15751 
H          H       0.41364   0.53983   0.27802 
H          H       0.46017   0.87381   0.27802 
H          H       0.12619   0.58636   0.27802 
H          H       0.58636   0.46017   0.27802 
H          H       0.53983   0.12619   0.27802 
H          H       0.87381   0.41364   0.27802 
H          H       0.35995   0.43173   0.11091 
H          H       0.56827   0.92822   0.11091 
H          H       0.07178   0.64005   0.11091 
H          H       0.64005   0.56827   0.11091 
H          H       0.43173   0.07178   0.11091 
H          H       0.92822   0.35995   0.11091 
H          H       0.41493   0.43116   0.11685 
H          H       0.56884   0.98377   0.11685 
H          H       0.01623   0.58507   0.11685 
H          H       0.58507   0.56884   0.11685 
H          H       0.43116   0.01623   0.11685 
H          H       0.98377   0.41493   0.11685 
H          H       0.01350   0.42866   0.36796 
H          H       0.57134   0.58484   0.36796 
H          H       0.41516   0.98650   0.36796 
H          H       0.98650   0.57134   0.36796 
H          H       0.42866   0.41516   0.36796 
H          H       0.58484   0.01350   0.36796 
C          C       0.03380   0.48331   0.77557 
C          C       0.51669   0.55049   0.77557 
C          C       0.44951   0.96620   0.77557 
C          C       0.96620   0.51669   0.77557 
C          C       0.48331   0.44951   0.77557 
C          C       0.55049   0.03380   0.77557 
C          C       0.03593   0.45208   0.83010 
C          C       0.54792   0.58385   0.83010 
C          C       0.41615   0.96407   0.83010 
C          C       0.96407   0.54792   0.83010 
C          C       0.45208   0.41615   0.83010 
C          C       0.58385   0.03593   0.83010 
C          C       0.06869   0.45123   0.83723 
C          C       0.54877   0.61746   0.83723 
C          C       0.38254   0.93131   0.83723 
C          C       0.93131   0.54877   0.83723 
C          C       0.45123   0.38254   0.83723 
C          C       0.61746   0.06869   0.83723 
C          C       0.10173   0.48243   0.79465 
C          C       0.51757   0.61930   0.79465 
C          C       0.38070   0.89827   0.79465 
C          C       0.89827   0.51757   0.79465 
C          C       0.48243   0.38070   0.79465 
C          C       0.61930   0.10173   0.79465 
C          C       0.10105   0.51468   0.75660 
C          C       0.48532   0.58637   0.75660 
C          C       0.41363   0.89895   0.75660 
C          C       0.89895   0.48532   0.75660 
C          C       0.51468   0.41363   0.75660 
C          C       0.58637   0.10105   0.75660 
C          C       0.06812   0.51646   0.75843 
C          C       0.48354   0.55166   0.75843 
C          C       0.44834   0.93188   0.75843 
C          C       0.93188   0.48354   0.75843 
C          C       0.51646   0.44834   0.75843 
C          C       0.55166   0.06812   0.75843 
N          N       0.13190   0.47895   0.79125 
N          N       0.52105   0.65295   0.79125 
N          N       0.34705   0.86810   0.79125 
N          N       0.86810   0.52105   0.79125 
N          N       0.47895   0.34705   0.79125 
N          N       0.65295   0.13190   0.79125 
C          C       0.16786   0.50433   0.78327 
C          C       0.49567   0.66353   0.78327 
C          C       0.33647   0.83214   0.78327 
C          C       0.83214   0.49567   0.78327 
C          C       0.50433   0.33647   0.78327 
C          C       0.66353   0.16786   0.78327 
C          C       0.19472   0.49415   0.76825 
C          C       0.50585   0.70057   0.76825 
C          C       0.29943   0.80528   0.76825 
C          C       0.80528   0.50585   0.76825 
C          C       0.49415   0.29943   0.76825 
C          C       0.70057   0.19472   0.76825 
S          S       0.18458   0.44890   0.73463 
S          S       0.55110   0.73568   0.73463 
S          S       0.26432   0.81542   0.73463 
S          S       0.81542   0.55110   0.73463 
S          S       0.44890   0.26432   0.73463 
S          S       0.73568   0.18458   0.73463 
C          C       0.23115   0.46555   0.72737 
C          C       0.53445   0.76560   0.72737 
C          C       0.23440   0.76885   0.72737 
C          C       0.76885   0.53445   0.72737 
C          C       0.46555   0.23440   0.72737 
C          C       0.76560   0.23115   0.72737 
C          C       0.25258   0.50249   0.75180 
C          C       0.49751   0.75009   0.75180 
C          C       0.24991   0.74742   0.75180 
C          C       0.74742   0.49751   0.75180 
C          C       0.50249   0.24991   0.75180 
C          C       0.75009   0.25258   0.75180 
C          C       0.23222   0.51956   0.77538 
C          C       0.48044   0.71266   0.77538 
C          C       0.28734   0.76778   0.77538 
C          C       0.76778   0.48044   0.77538 
C          C       0.51956   0.28734   0.77538 
C          C       0.71266   0.23222   0.77538 
C          C       0.25154   0.44857   0.70104 
C          C       0.55143   0.80297   0.70104 
C          C       0.19703   0.74846   0.70104 
C          C       0.74846   0.55143   0.70104 
C          C       0.44857   0.19703   0.70104 
C          C       0.80297   0.25154   0.70104 
C          C       0.28904   0.47401   0.70810 
C          C       0.52599   0.81503   0.70810 
C          C       0.18497   0.71096   0.70810 
C          C       0.71096   0.52599   0.70810 
C          C       0.47401   0.18497   0.70810 
C          C       0.81503   0.28904   0.70810 
S          S       0.29915   0.51912   0.74653 
S          S       0.48088   0.78003   0.74653 
S          S       0.21997   0.70085   0.74653 
S          S       0.70085   0.48088   0.74653 
S          S       0.51912   0.21997   0.74653 
S          S       0.78003   0.29915   0.74653 
C          C       0.31599   0.46407   0.68770 
C          C       0.53593   0.85192   0.68770 
C          C       0.14808   0.68401   0.68770 
C          C       0.68401   0.53593   0.68770 
C          C       0.46407   0.14808   0.68770 
C          C       0.85192   0.31599   0.68770 
C          C       0.48282   0.48310   0.74672 
C          C       0.51690   0.99972   0.74672 
C          C       0.00028   0.51718   0.74672 
C          C       0.51718   0.51690   0.74672 
C          C       0.48310   0.00028   0.74672 
C          C       0.99972   0.48282   0.74672 
N          N       0.44993   0.48486   0.71761 
N          N       0.51514   0.96507   0.71761 
N          N       0.03493   0.55007   0.71761 
N          N       0.55007   0.51514   0.71761 
N          N       0.48486   0.03493   0.71761 
N          N       0.96507   0.44993   0.71761 
C          C       0.44981   0.51846   0.73852 
C          C       0.48154   0.93135   0.73852 
C          C       0.06865   0.55019   0.73852 
C          C       0.55019   0.48154   0.73852 
C          C       0.51846   0.06865   0.73852 
C          C       0.93135   0.44981   0.73852 
C          C       0.41555   0.51758   0.74217 
C          C       0.48242   0.89797   0.74217 
C          C       0.10203   0.58445   0.74217 
C          C       0.58445   0.48242   0.74217 
C          C       0.51758   0.10203   0.74217 
C          C       0.89797   0.41555   0.74217 
C          C       0.38229   0.48620   0.70063 
C          C       0.51380   0.89609   0.70063 
C          C       0.10391   0.61771   0.70063 
C          C       0.61771   0.51380   0.70063 
C          C       0.48620   0.10391   0.70063 
C          C       0.89609   0.38229   0.70063 
C          C       0.38319   0.45469   0.65137 
C          C       0.54531   0.92850   0.65137 
C          C       0.07150   0.61681   0.65137 
C          C       0.61681   0.54531   0.65137 
C          C       0.45469   0.07150   0.65137 
C          C       0.92850   0.38319   0.65137 
C          C       0.41632   0.45455   0.65851 
C          C       0.54545   0.96177   0.65851 
C          C       0.03823   0.58368   0.65851 
C          C       0.58368   0.54545   0.65851 
C          C       0.45455   0.03823   0.65851 
C          C       0.96177   0.41632   0.65851 
N          N       0.35176   0.48897   0.71023 
N          N       0.51103   0.86279   0.71023 
N          N       0.13721   0.64824   0.71023 
N          N       0.64824   0.51103   0.71023 
N          N       0.48897   0.13721   0.71023 
N          N       0.86279   0.35176   0.71023 
H          H       0.06849   0.42769   0.87282 
H          H       0.57231   0.64080   0.87282 
H          H       0.35920   0.93151   0.87282 
H          H       0.93151   0.57231   0.87282 
H          H       0.42769   0.35920   0.87282 
H          H       0.64080   0.06849   0.87282 
H          H       0.12536   0.53671   0.72297 
H          H       0.46329   0.58865   0.72297 
H          H       0.41135   0.87464   0.72297 
H          H       0.87464   0.46329   0.72297 
H          H       0.53671   0.41135   0.72297 
H          H       0.58865   0.12536   0.72297 
H          H       0.17600   0.53155   0.78819 
H          H       0.46845   0.64445   0.78819 
H          H       0.35555   0.82400   0.78819 
H          H       0.82400   0.46845   0.78819 
H          H       0.53155   0.35555   0.78819 
H          H       0.64445   0.17600   0.78819 
H          H       0.24348   0.54707   0.79463 
H          H       0.45293   0.69641   0.79463 
H          H       0.30359   0.75652   0.79463 
H          H       0.75652   0.45293   0.79463 
H          H       0.54707   0.30359   0.79463 
H          H       0.69641   0.24348   0.79463 
H          H       0.24031   0.42112   0.67992 
H          H       0.57888   0.81919   0.67992 
H          H       0.18081   0.75969   0.67992 
H          H       0.75969   0.57888   0.67992 
H          H       0.42112   0.18081   0.67992 
H          H       0.81919   0.24031   0.67992 
H          H       0.30814   0.43753   0.65751 
H          H       0.56247   0.87061   0.65751 
H          H       0.12939   0.69186   0.65751 
H          H       0.69186   0.56247   0.65751 
H          H       0.43753   0.12939   0.65751 
H          H       0.87061   0.30814   0.65751 
H          H       0.41364   0.53983   0.77801 
H          H       0.46017   0.87381   0.77801 
H          H       0.12619   0.58636   0.77801 
H          H       0.58636   0.46017   0.77801 
H          H       0.53983   0.12619   0.77801 
H          H       0.87381   0.41364   0.77801 
H          H       0.35995   0.43173   0.61091 
H          H       0.56827   0.92822   0.61091 
H          H       0.07178   0.64005   0.61091 
H          H       0.64005   0.56827   0.61091 
H          H       0.43173   0.07178   0.61091 
H          H       0.92822   0.35995   0.61091 
H          H       0.41493   0.43116   0.61685 
H          H       0.56884   0.98377   0.61685 
H          H       0.01623   0.58507   0.61685 
H          H       0.58507   0.56884   0.61685 
H          H       0.43116   0.01623   0.61685 
H          H       0.98377   0.41493   0.61685 
H          H       0.01350   0.42866   0.86796 
H          H       0.57134   0.58484   0.86796 
H          H       0.41516   0.98650   0.86796 
H          H       0.98650   0.57134   0.86796 
H          H       0.42866   0.41516   0.86796 
H          H       0.58484   0.01350   0.86796 
