data_crystal

_cell_length_a    46.29900
_cell_length_b    46.29900
_cell_length_c    8.03400
_cell_angle_alpha 90.00000
_cell_angle_beta  90.00000
_cell_angle_gamma 120.00000

_space_group_name_Hall 'P 1'
_space_group_name_H-M_alt  'P 1'

loop_
_symmetry_equiv_pos_as_xyz
'x,y,z' 

loop_
_atom_site_label
_atom_site_type_symbol
_atom_site_fract_x
_atom_site_fract_y
_atom_site_fract_z
C          C       0.48657   0.48523   0.20297 
C          C       0.51477   0.00134   0.20297 
C          C       0.99866   0.51343   0.20297 
C          C       0.51343   0.51477   0.20297 
C          C       0.48523   0.99866   0.20297 
C          C       0.00134   0.48657   0.20297 
C          C       0.54747   0.51934   0.23994 
C          C       0.48066   0.02813   0.23994 
C          C       0.97187   0.45253   0.23994 
C          C       0.45253   0.48066   0.23994 
C          C       0.51934   0.97187   0.23994 
C          C       0.02813   0.54747   0.23994 
C          C       0.51209   0.54571   0.16964 
C          C       0.45429   0.96638   0.16964 
C          C       0.03362   0.48791   0.16964 
C          C       0.48791   0.45429   0.16964 
C          C       0.54571   0.03362   0.16964 
C          C       0.96638   0.51209   0.16964 
C          C       0.57621   0.54952   0.29274 
C          C       0.45048   0.02669   0.29274 
C          C       0.97331   0.42379   0.29274 
C          C       0.42379   0.45048   0.29274 
C          C       0.54952   0.97331   0.29274 
C          C       0.02669   0.57621   0.29274 
C          C       0.60724   0.55217   0.32382 
C          C       0.44783   0.05507   0.32382 
C          C       0.94493   0.39276   0.32382 
C          C       0.39276   0.44783   0.32382 
C          C       0.55217   0.94493   0.32382 
C          C       0.05507   0.60724   0.32382 
C          C       0.61072   0.52399   0.30536 
C          C       0.47601   0.08673   0.30536 
C          C       0.91327   0.38928   0.30536 
C          C       0.38928   0.47601   0.30536 
C          C       0.52399   0.91327   0.30536 
C          C       0.08673   0.61072   0.30536 
C          C       0.58252   0.49341   0.26393 
C          C       0.50659   0.08911   0.26393 
C          C       0.91089   0.41748   0.26393 
C          C       0.41748   0.50659   0.26393 
C          C       0.49341   0.91089   0.26393 
C          C       0.08911   0.58252   0.26393 
C          C       0.55050   0.48998   0.23523 
C          C       0.51002   0.06052   0.23523 
C          C       0.93948   0.44950   0.23523 
C          C       0.44950   0.51002   0.23523 
C          C       0.48998   0.93948   0.23523 
C          C       0.06052   0.55050   0.23523 
C          C       0.46428   0.42667   0.10232 
C          C       0.57333   0.03761   0.10232 
C          C       0.96239   0.53572   0.10232 
C          C       0.53572   0.57333   0.10232 
C          C       0.42667   0.96239   0.10232 
C          C       0.03761   0.46428   0.10232 
C          C       0.46592   0.39731   0.09262 
C          C       0.60269   0.06861   0.09262 
C          C       0.93139   0.53408   0.09262 
C          C       0.53408   0.60269   0.09262 
C          C       0.39731   0.93139   0.09262 
C          C       0.06861   0.46592   0.09262 
C          C       0.49474   0.39752   0.14652 
C          C       0.60248   0.09722   0.14652 
C          C       0.90278   0.50526   0.14652 
C          C       0.50526   0.60248   0.14652 
C          C       0.39752   0.90278   0.14652 
C          C       0.09722   0.49474   0.14652 
C          C       0.52262   0.42804   0.19407 
C          C       0.57196   0.09458   0.19407 
C          C       0.90542   0.47738   0.19407 
C          C       0.47738   0.57196   0.19407 
C          C       0.42804   0.90542   0.19407 
C          C       0.09458   0.52262   0.19407 
C          C       0.52182   0.45850   0.19868 
C          C       0.54150   0.06332   0.19868 
C          C       0.93668   0.47818   0.19868 
C          C       0.47818   0.54150   0.19868 
C          C       0.45850   0.93668   0.19868 
C          C       0.06332   0.52182   0.19868 
N          N       0.63973   0.52397   0.32245 
N          N       0.47603   0.11576   0.32245 
N          N       0.88424   0.36027   0.32245 
N          N       0.36027   0.47603   0.32245 
N          N       0.52397   0.88424   0.32245 
N          N       0.11576   0.63973   0.32245 
N          N       0.49293   0.36755   0.15721 
N          N       0.63245   0.12538   0.15721 
N          N       0.87462   0.50707   0.15721 
N          N       0.50707   0.63245   0.15721 
N          N       0.36755   0.87462   0.15721 
N          N       0.12538   0.49293   0.15721 
C          C       0.51695   0.35928   0.17661 
C          C       0.64072   0.15767   0.17661 
C          C       0.84233   0.48305   0.17661 
C          C       0.48305   0.64072   0.17661 
C          C       0.35928   0.84233   0.17661 
C          C       0.15767   0.51695   0.17661 
C          C       0.67165   0.54914   0.33539 
C          C       0.45086   0.12251   0.33539 
C          C       0.87749   0.32835   0.33539 
C          C       0.32835   0.45086   0.33539 
C          C       0.54914   0.87749   0.33539 
C          C       0.12251   0.67165   0.33539 
C          C       0.69733   0.54129   0.33697 
C          C       0.45871   0.15604   0.33697 
C          C       0.84396   0.30267   0.33697 
C          C       0.30267   0.45871   0.33697 
C          C       0.54129   0.84396   0.33697 
C          C       0.15604   0.69733   0.33697 
C          C       0.72920   0.56440   0.27305 
C          C       0.43560   0.16480   0.27305 
C          C       0.83520   0.27080   0.27305 
C          C       0.27080   0.43560   0.27305 
C          C       0.56440   0.83520   0.27305 
C          C       0.16480   0.72920   0.27305 
C          C       0.75392   0.55532   0.25611 
C          C       0.44468   0.19860   0.25611 
C          C       0.80140   0.24608   0.25611 
C          C       0.24608   0.44468   0.25611 
C          C       0.55532   0.80140   0.25611 
C          C       0.19860   0.75392   0.25611 
C          C       0.74763   0.52321   0.30531 
C          C       0.47679   0.22442   0.30531 
C          C       0.77558   0.25237   0.30531 
C          C       0.25237   0.47679   0.30531 
C          C       0.52321   0.77558   0.30531 
C          C       0.22442   0.74763   0.30531 
C          C       0.71632   0.50088   0.37812 
C          C       0.49912   0.21544   0.37812 
C          C       0.78456   0.28368   0.37812 
C          C       0.28368   0.49912   0.37812 
C          C       0.50088   0.78456   0.37812 
C          C       0.21544   0.71632   0.37812 
C          C       0.69152   0.50981   0.39382 
C          C       0.49019   0.18171   0.39382 
C          C       0.81829   0.30848   0.39382 
C          C       0.30848   0.49019   0.39382 
C          C       0.50981   0.81829   0.39382 
C          C       0.18171   0.69152   0.39382 
C          C       0.77174   0.51343   0.27869 
C          C       0.48657   0.25831   0.27869 
C          C       0.74169   0.22826   0.27869 
C          C       0.22826   0.48657   0.27869 
C          C       0.51343   0.74169   0.27869 
C          C       0.25831   0.77174   0.27869 
C          C       0.76261   0.48184   0.20813 
C          C       0.51816   0.28077   0.20813 
C          C       0.71923   0.23739   0.20813 
C          C       0.23739   0.51816   0.20813 
C          C       0.48184   0.71923   0.20813 
C          C       0.28077   0.76261   0.20813 
C          C       0.78678   0.47255   0.17542 
C          C       0.52745   0.31423   0.17542 
C          C       0.68577   0.21322   0.17542 
C          C       0.21322   0.52745   0.17542 
C          C       0.47255   0.68577   0.17542 
C          C       0.31423   0.78678   0.17542 
C          C       0.82080   0.49480   0.21144 
C          C       0.50520   0.32600   0.21144 
C          C       0.67400   0.17920   0.21144 
C          C       0.17920   0.50520   0.21144 
C          C       0.49480   0.67400   0.21144 
C          C       0.32600   0.82080   0.21144 
C          C       0.82988   0.52607   0.28526 
C          C       0.47393   0.30381   0.28526 
C          C       0.69619   0.17012   0.28526 
C          C       0.17012   0.47393   0.28526 
C          C       0.52607   0.69619   0.28526 
C          C       0.30381   0.82988   0.28526 
C          C       0.80569   0.53521   0.31916 
C          C       0.46479   0.27048   0.31916 
C          C       0.72952   0.19431   0.31916 
C          C       0.19431   0.46479   0.31916 
C          C       0.53521   0.72952   0.31916 
C          C       0.27048   0.80569   0.31916 
H          H       0.57550   0.57078   0.31284 
H          H       0.42922   0.00472   0.31284 
H          H       0.99528   0.42450   0.31284 
H          H       0.42450   0.42922   0.31284 
H          H       0.57078   0.99528   0.31284 
H          H       0.00472   0.57550   0.31284 
H          H       0.62702   0.57457   0.35987 
H          H       0.42543   0.05245   0.35987 
H          H       0.94755   0.37298   0.35987 
H          H       0.37298   0.42543   0.35987 
H          H       0.57457   0.94755   0.35987 
H          H       0.05245   0.62702   0.35987 
H          H       0.58659   0.47382   0.25335 
H          H       0.52618   0.11277   0.25335 
H          H       0.88723   0.41341   0.25335 
H          H       0.41341   0.52618   0.25335 
H          H       0.47382   0.88723   0.25335 
H          H       0.11277   0.58659   0.25335 
H          H       0.44290   0.42517   0.06056 
H          H       0.57483   0.01773   0.06056 
H          H       0.98227   0.55710   0.06056 
H          H       0.55710   0.57483   0.06056 
H          H       0.42517   0.98227   0.06056 
H          H       0.01773   0.44290   0.06056 
H          H       0.44592   0.37570   0.04907 
H          H       0.62430   0.07022   0.04907 
H          H       0.92978   0.55408   0.04907 
H          H       0.55408   0.62430   0.04907 
H          H       0.37570   0.92978   0.04907 
H          H       0.07022   0.44592   0.04907 
H          H       0.54311   0.42699   0.22945 
H          H       0.57301   0.11612   0.22945 
H          H       0.88388   0.45689   0.22945 
H          H       0.45689   0.57301   0.22945 
H          H       0.42699   0.88388   0.22945 
H          H       0.11612   0.54311   0.22945 
H          H       0.67735   0.57358   0.33370 
H          H       0.42642   0.10377   0.33370 
H          H       0.89623   0.32265   0.33370 
H          H       0.32265   0.42642   0.33370 
H          H       0.57358   0.89623   0.33370 
H          H       0.10377   0.67735   0.33370 
H          H       0.73437   0.58762   0.23378 
H          H       0.41238   0.14675   0.23378 
H          H       0.85325   0.26563   0.23378 
H          H       0.26563   0.41238   0.23378 
H          H       0.58762   0.85325   0.23378 
H          H       0.14675   0.73437   0.23378 
H          H       0.77636   0.57219   0.20369 
H          H       0.42781   0.20417   0.20369 
H          H       0.79583   0.22364   0.20369 
H          H       0.22364   0.42781   0.20369 
H          H       0.57219   0.79583   0.20369 
H          H       0.20417   0.77636   0.20369 
H          H       0.71121   0.47784   0.41967 
H          H       0.52216   0.23337   0.41967 
H          H       0.76663   0.28879   0.41967 
H          H       0.28879   0.52216   0.41967 
H          H       0.47784   0.76663   0.41967 
H          H       0.23337   0.71121   0.41967 
H          H       0.66899   0.49303   0.44591 
H          H       0.50697   0.17596   0.44591 
H          H       0.82404   0.33101   0.44591 
H          H       0.33101   0.50697   0.44591 
H          H       0.49303   0.82404   0.44591 
H          H       0.17596   0.66899   0.44591 
H          H       0.73825   0.46540   0.17761 
H          H       0.53460   0.27285   0.17761 
H          H       0.72715   0.26175   0.17761 
H          H       0.26175   0.53460   0.17761 
H          H       0.46540   0.72715   0.17761 
H          H       0.27285   0.73825   0.17761 
H          H       0.77938   0.44963   0.12316 
H          H       0.55037   0.32975   0.12316 
H          H       0.67025   0.22062   0.12316 
H          H       0.22062   0.55037   0.12316 
H          H       0.44963   0.67025   0.12316 
H          H       0.32975   0.77938   0.12316 
H          H       0.85426   0.54239   0.31648 
H          H       0.45761   0.31187   0.31648 
H          H       0.68813   0.14574   0.31648 
H          H       0.14574   0.45761   0.31648 
H          H       0.54239   0.68813   0.31648 
H          H       0.31187   0.85426   0.31648 
H          H       0.81311   0.55787   0.37444 
H          H       0.44213   0.25524   0.37444 
H          H       0.74476   0.18689   0.37444 
H          H       0.18689   0.44213   0.37444 
H          H       0.55787   0.74476   0.37444 
H          H       0.25524   0.81311   0.37444 
H          H       0.83795   0.46094   0.16673 
H          H       0.53906   0.37701   0.16673 
H          H       0.62299   0.16205   0.16673 
H          H       0.16205   0.53906   0.16673 
H          H       0.46094   0.62299   0.16673 
H          H       0.37701   0.83795   0.16673 
C          C       0.48657   0.48523   0.70298 
C          C       0.51477   0.00134   0.70298 
C          C       0.99866   0.51343   0.70298 
C          C       0.51343   0.51477   0.70298 
C          C       0.48523   0.99866   0.70298 
C          C       0.00134   0.48657   0.70298 
C          C       0.54747   0.51934   0.73994 
C          C       0.48066   0.02813   0.73994 
C          C       0.97187   0.45253   0.73994 
C          C       0.45253   0.48066   0.73994 
C          C       0.51934   0.97187   0.73994 
C          C       0.02813   0.54747   0.73994 
C          C       0.51209   0.54571   0.66964 
C          C       0.45429   0.96638   0.66964 
C          C       0.03362   0.48791   0.66964 
C          C       0.48791   0.45429   0.66964 
C          C       0.54571   0.03362   0.66964 
C          C       0.96638   0.51209   0.66964 
C          C       0.57621   0.54952   0.79274 
C          C       0.45048   0.02669   0.79274 
C          C       0.97331   0.42379   0.79274 
C          C       0.42379   0.45048   0.79274 
C          C       0.54952   0.97331   0.79274 
C          C       0.02669   0.57621   0.79274 
C          C       0.60724   0.55217   0.82381 
C          C       0.44783   0.05507   0.82381 
C          C       0.94493   0.39276   0.82381 
C          C       0.39276   0.44783   0.82381 
C          C       0.55217   0.94493   0.82381 
C          C       0.05507   0.60724   0.82381 
C          C       0.61072   0.52399   0.80536 
C          C       0.47601   0.08673   0.80536 
C          C       0.91327   0.38928   0.80536 
C          C       0.38928   0.47601   0.80536 
C          C       0.52399   0.91327   0.80536 
C          C       0.08673   0.61072   0.80536 
C          C       0.58252   0.49341   0.76393 
C          C       0.50659   0.08911   0.76393 
C          C       0.91089   0.41748   0.76393 
C          C       0.41748   0.50659   0.76393 
C          C       0.49341   0.91089   0.76393 
C          C       0.08911   0.58252   0.76393 
C          C       0.55050   0.48998   0.73523 
C          C       0.51002   0.06052   0.73523 
C          C       0.93948   0.44950   0.73523 
C          C       0.44950   0.51002   0.73523 
C          C       0.48998   0.93948   0.73523 
C          C       0.06052   0.55050   0.73523 
C          C       0.46428   0.42667   0.60232 
C          C       0.57333   0.03761   0.60232 
C          C       0.96239   0.53572   0.60232 
C          C       0.53572   0.57333   0.60232 
C          C       0.42667   0.96239   0.60232 
C          C       0.03761   0.46428   0.60232 
C          C       0.46592   0.39731   0.59262 
C          C       0.60269   0.06861   0.59262 
C          C       0.93139   0.53408   0.59262 
C          C       0.53408   0.60269   0.59262 
C          C       0.39731   0.93139   0.59262 
C          C       0.06861   0.46592   0.59262 
C          C       0.49474   0.39752   0.64653 
C          C       0.60248   0.09722   0.64653 
C          C       0.90278   0.50526   0.64653 
C          C       0.50526   0.60248   0.64653 
C          C       0.39752   0.90278   0.64653 
C          C       0.09722   0.49474   0.64653 
C          C       0.52262   0.42804   0.69407 
C          C       0.57196   0.09458   0.69407 
C          C       0.90542   0.47738   0.69407 
C          C       0.47738   0.57196   0.69407 
C          C       0.42804   0.90542   0.69407 
C          C       0.09458   0.52262   0.69407 
C          C       0.52182   0.45850   0.69868 
C          C       0.54150   0.06332   0.69868 
C          C       0.93668   0.47818   0.69868 
C          C       0.47818   0.54150   0.69868 
C          C       0.45850   0.93668   0.69868 
C          C       0.06332   0.52182   0.69868 
N          N       0.63973   0.52397   0.82246 
N          N       0.47603   0.11576   0.82246 
N          N       0.88424   0.36027   0.82246 
N          N       0.36027   0.47603   0.82246 
N          N       0.52397   0.88424   0.82246 
N          N       0.11576   0.63973   0.82246 
N          N       0.49293   0.36755   0.65721 
N          N       0.63245   0.12538   0.65721 
N          N       0.87462   0.50707   0.65721 
N          N       0.50707   0.63245   0.65721 
N          N       0.36755   0.87462   0.65721 
N          N       0.12538   0.49293   0.65721 
C          C       0.51695   0.35928   0.67661 
C          C       0.64072   0.15767   0.67661 
C          C       0.84233   0.48305   0.67661 
C          C       0.48305   0.64072   0.67661 
C          C       0.35928   0.84233   0.67661 
C          C       0.15767   0.51695   0.67661 
C          C       0.67165   0.54914   0.83539 
C          C       0.45086   0.12251   0.83539 
C          C       0.87749   0.32835   0.83539 
C          C       0.32835   0.45086   0.83539 
C          C       0.54914   0.87749   0.83539 
C          C       0.12251   0.67165   0.83539 
C          C       0.69733   0.54129   0.83697 
C          C       0.45871   0.15604   0.83697 
C          C       0.84396   0.30267   0.83697 
C          C       0.30267   0.45871   0.83697 
C          C       0.54129   0.84396   0.83697 
C          C       0.15604   0.69733   0.83697 
C          C       0.72920   0.56440   0.77306 
C          C       0.43560   0.16480   0.77306 
C          C       0.83520   0.27080   0.77306 
C          C       0.27080   0.43560   0.77306 
C          C       0.56440   0.83520   0.77306 
C          C       0.16480   0.72920   0.77306 
C          C       0.75392   0.55532   0.75611 
C          C       0.44468   0.19860   0.75611 
C          C       0.80140   0.24608   0.75611 
C          C       0.24608   0.44468   0.75611 
C          C       0.55532   0.80140   0.75611 
C          C       0.19860   0.75392   0.75611 
C          C       0.74763   0.52321   0.80531 
C          C       0.47679   0.22442   0.80531 
C          C       0.77558   0.25237   0.80531 
C          C       0.25237   0.47679   0.80531 
C          C       0.52321   0.77558   0.80531 
C          C       0.22442   0.74763   0.80531 
C          C       0.71632   0.50088   0.87812 
C          C       0.49912   0.21544   0.87812 
C          C       0.78456   0.28368   0.87812 
C          C       0.28368   0.49912   0.87812 
C          C       0.50088   0.78456   0.87812 
C          C       0.21544   0.71632   0.87812 
C          C       0.69152   0.50981   0.89382 
C          C       0.49019   0.18171   0.89382 
C          C       0.81829   0.30848   0.89382 
C          C       0.30848   0.49019   0.89382 
C          C       0.50981   0.81829   0.89382 
C          C       0.18171   0.69152   0.89382 
C          C       0.77174   0.51343   0.77869 
C          C       0.48657   0.25831   0.77869 
C          C       0.74169   0.22826   0.77869 
C          C       0.22826   0.48657   0.77869 
C          C       0.51343   0.74169   0.77869 
C          C       0.25831   0.77174   0.77869 
C          C       0.76261   0.48184   0.70813 
C          C       0.51816   0.28077   0.70813 
C          C       0.71923   0.23739   0.70813 
C          C       0.23739   0.51816   0.70813 
C          C       0.48184   0.71923   0.70813 
C          C       0.28077   0.76261   0.70813 
C          C       0.78678   0.47255   0.67542 
C          C       0.52745   0.31423   0.67542 
C          C       0.68577   0.21322   0.67542 
C          C       0.21322   0.52745   0.67542 
C          C       0.47255   0.68577   0.67542 
C          C       0.31423   0.78678   0.67542 
C          C       0.82080   0.49480   0.71144 
C          C       0.50520   0.32600   0.71144 
C          C       0.67400   0.17920   0.71144 
C          C       0.17920   0.50520   0.71144 
C          C       0.49480   0.67400   0.71144 
C          C       0.32600   0.82080   0.71144 
C          C       0.82988   0.52607   0.78526 
C          C       0.47393   0.30381   0.78526 
C          C       0.69619   0.17012   0.78526 
C          C       0.17012   0.47393   0.78526 
C          C       0.52607   0.69619   0.78526 
C          C       0.30381   0.82988   0.78526 
C          C       0.80569   0.53521   0.81916 
C          C       0.46479   0.27048   0.81916 
C          C       0.72952   0.19431   0.81916 
C          C       0.19431   0.46479   0.81916 
C          C       0.53521   0.72952   0.81916 
C          C       0.27048   0.80569   0.81916 
H          H       0.57550   0.57078   0.81284 
H          H       0.42922   0.00472   0.81284 
H          H       0.99528   0.42450   0.81284 
H          H       0.42450   0.42922   0.81284 
H          H       0.57078   0.99528   0.81284 
H          H       0.00472   0.57550   0.81284 
H          H       0.62702   0.57457   0.85987 
H          H       0.42543   0.05245   0.85987 
H          H       0.94755   0.37298   0.85987 
H          H       0.37298   0.42543   0.85987 
H          H       0.57457   0.94755   0.85987 
H          H       0.05245   0.62702   0.85987 
H          H       0.58659   0.47382   0.75335 
H          H       0.52618   0.11277   0.75335 
H          H       0.88723   0.41341   0.75335 
H          H       0.41341   0.52618   0.75335 
H          H       0.47382   0.88723   0.75335 
H          H       0.11277   0.58659   0.75335 
H          H       0.44290   0.42517   0.56056 
H          H       0.57483   0.01773   0.56056 
H          H       0.98227   0.55710   0.56056 
H          H       0.55710   0.57483   0.56056 
H          H       0.42517   0.98227   0.56056 
H          H       0.01773   0.44290   0.56056 
H          H       0.44592   0.37570   0.54907 
H          H       0.62430   0.07022   0.54907 
H          H       0.92978   0.55408   0.54907 
H          H       0.55408   0.62430   0.54907 
H          H       0.37570   0.92978   0.54907 
H          H       0.07022   0.44592   0.54907 
H          H       0.54311   0.42699   0.72945 
H          H       0.57301   0.11612   0.72945 
H          H       0.88388   0.45689   0.72945 
H          H       0.45689   0.57301   0.72945 
H          H       0.42699   0.88388   0.72945 
H          H       0.11612   0.54311   0.72945 
H          H       0.67735   0.57358   0.83370 
H          H       0.42642   0.10377   0.83370 
H          H       0.89623   0.32265   0.83370 
H          H       0.32265   0.42642   0.83370 
H          H       0.57358   0.89623   0.83370 
H          H       0.10377   0.67735   0.83370 
H          H       0.73437   0.58762   0.73379 
H          H       0.41238   0.14675   0.73379 
H          H       0.85325   0.26563   0.73379 
H          H       0.26563   0.41238   0.73379 
H          H       0.58762   0.85325   0.73379 
H          H       0.14675   0.73437   0.73379 
H          H       0.77636   0.57219   0.70369 
H          H       0.42781   0.20417   0.70369 
H          H       0.79583   0.22364   0.70369 
H          H       0.22364   0.42781   0.70369 
H          H       0.57219   0.79583   0.70369 
H          H       0.20417   0.77636   0.70369 
H          H       0.71121   0.47784   0.91967 
H          H       0.52216   0.23337   0.91967 
H          H       0.76663   0.28879   0.91967 
H          H       0.28879   0.52216   0.91967 
H          H       0.47784   0.76663   0.91967 
H          H       0.23337   0.71121   0.91967 
H          H       0.66899   0.49303   0.94591 
H          H       0.50697   0.17596   0.94591 
H          H       0.82404   0.33101   0.94591 
H          H       0.33101   0.50697   0.94591 
H          H       0.49303   0.82404   0.94591 
H          H       0.17596   0.66899   0.94591 
H          H       0.73825   0.46540   0.67762 
H          H       0.53460   0.27285   0.67762 
H          H       0.72715   0.26175   0.67762 
H          H       0.26175   0.53460   0.67762 
H          H       0.46540   0.72715   0.67762 
H          H       0.27285   0.73825   0.67762 
H          H       0.77938   0.44963   0.62317 
H          H       0.55037   0.32975   0.62317 
H          H       0.67025   0.22062   0.62317 
H          H       0.22062   0.55037   0.62317 
H          H       0.44963   0.67025   0.62317 
H          H       0.32975   0.77938   0.62317 
H          H       0.85426   0.54239   0.81648 
H          H       0.45761   0.31187   0.81648 
H          H       0.68813   0.14574   0.81648 
H          H       0.14574   0.45761   0.81648 
H          H       0.54239   0.68813   0.81648 
H          H       0.31187   0.85426   0.81648 
H          H       0.81311   0.55787   0.87444 
H          H       0.44213   0.25524   0.87444 
H          H       0.74476   0.18689   0.87444 
H          H       0.18689   0.44213   0.87444 
H          H       0.55787   0.74476   0.87444 
H          H       0.25524   0.81311   0.87444 
H          H       0.83795   0.46094   0.66673 
H          H       0.53906   0.37701   0.66673 
H          H       0.62299   0.16205   0.66673 
H          H       0.16205   0.53906   0.66673 
H          H       0.46094   0.62299   0.66673 
H          H       0.37701   0.83795   0.66673 
