data_crystal
 
_cell_length_a    25.25000
_cell_length_b    25.25000
_cell_length_c    8.05580
_cell_angle_alpha 90.00000
_cell_angle_beta  90.00000
_cell_angle_gamma 90.00000
 
_space_group_name_Hall 'P 1'
_space_group_name_H-M_alt  'P 1'
 
loop_
_symmetry_equiv_pos_as_xyz
 'x,y,z' 
 
loop_
_atom_site_label
_atom_site_type_symbol
_atom_site_fract_x
_atom_site_fract_y
_atom_site_fract_z
N          N       0.05548   0.05625   0.49663 
N          N       0.94452   0.94375   0.49663 
N          N       0.05625   0.94452   0.00337 
N          N       0.94375   0.05548   0.00337 
C          C       0.04693   0.10834   0.46731 
C          C       0.95307   0.89166   0.46731 
C          C       0.10834   0.95307   0.03269 
C          C       0.89166   0.04693   0.03269 
C          C       0.09321   0.13269   0.41611 
C          C       0.90679   0.86731   0.41611 
C          C       0.13269   0.90679   0.08389 
C          C       0.86731   0.09321   0.08389 
C          C       0.22237   0.03993   0.08963 
C          C       0.77763   0.96007   0.08963 
C          C       0.03993   0.77763   0.41037 
C          C       0.96007   0.22237   0.41037 
C          C       0.27740   0.04070   0.08850 
C          C       0.72260   0.95930   0.08850 
C          C       0.04070   0.72260   0.41150 
C          C       0.95930   0.27740   0.41150 
C          C       0.38875   0.04461   0.44909 
C          C       0.61125   0.95539   0.44909 
C          C       0.04461   0.61125   0.05091 
C          C       0.95539   0.38875   0.05091 
C          C       0.44374   0.04483   0.44916 
C          C       0.55626   0.95517   0.44916 
C          C       0.04483   0.55626   0.05084 
C          C       0.95517   0.44374   0.05084 
H          H       0.17252   0.10274   0.39012 
H          H       0.82748   0.89726   0.39012 
H          H       0.10274   0.82748   0.10988 
H          H       0.89726   0.17252   0.10988 
H          H       0.20174   0.06991   0.15854 
H          H       0.79826   0.93009   0.15854 
H          H       0.06991   0.79826   0.34146 
H          H       0.93009   0.20174   0.34146 
H          H       0.29831   0.07094   0.15765 
H          H       0.70169   0.92906   0.15765 
H          H       0.07094   0.70169   0.34235 
H          H       0.92906   0.29831   0.34235 
H          H       0.36775   0.07890   0.40198 
H          H       0.63225   0.92110   0.40198 
H          H       0.07890   0.63225   0.09802 
H          H       0.92110   0.36775   0.09802 
H          H       0.46477   0.07899   0.40153 
H          H       0.53523   0.92101   0.40153 
H          H       0.07899   0.53523   0.09847 
H          H       0.92101   0.46477   0.09847 
C          C       0.13511   0.00094   0.00010 
C          C       0.86489   0.99906   0.00010 
C          C       0.00094   0.86489   0.49990 
C          C       0.99906   0.13511   0.49990 
C          C       0.19427   0.00135   0.00024 
C          C       0.80573   0.99865   0.00024 
C          C       0.00135   0.80573   0.49976 
C          C       0.99865   0.19427   0.49976 
C          C       0.30534   0.00158   0.00258 
C          C       0.69466   0.99842   0.00258 
C          C       0.00158   0.69466   0.49742 
C          C       0.99842   0.30534   0.49742 
N          N       0.36176   0.00135   0.00510 
N          N       0.63824   0.99865   0.00510 
N          N       0.00135   0.63824   0.49490 
N          N       0.99865   0.36176   0.49490 
C          C       0.47102   0.00038   0.00785 
C          C       0.52898   0.99962   0.00785 
C          C       0.00038   0.52898   0.49215 
C          C       0.99962   0.47102   0.49215 
C          C       0.44267   0.95655   0.06580 
C          C       0.55733   0.04345   0.06580 
C          C       0.95655   0.55733   0.43420 
C          C       0.04345   0.44267   0.43420 
C          C       0.38772   0.95774   0.06309 
C          C       0.61228   0.04226   0.06309 
C          C       0.95774   0.61228   0.43691 
C          C       0.04226   0.38772   0.43691 
C          C       0.27791   0.96245   0.41506 
C          C       0.72209   0.03755   0.41506 
C          C       0.96245   0.72209   0.08494 
C          C       0.03755   0.27791   0.08494 
C          C       0.22291   0.96303   0.41147 
C          C       0.77709   0.03697   0.41147 
C          C       0.96303   0.77709   0.08853 
C          C       0.03697   0.22291   0.08853 
C          C       0.89231   0.95157   0.46746 
C          C       0.10769   0.04843   0.46746 
C          C       0.95157   0.10769   0.03254 
C          C       0.04843   0.89231   0.03254 
C          C       0.86859   0.90497   0.41630 
C          C       0.13141   0.09503   0.41630 
C          C       0.90497   0.13141   0.08370 
C          C       0.09503   0.86859   0.08370 
H          H       0.10036   0.17388   0.38966 
H          H       0.89964   0.82612   0.38966 
H          H       0.17388   0.89964   0.11034 
H          H       0.82612   0.10036   0.11034 
H          H       0.46286   0.92196   0.11397 
H          H       0.53714   0.07804   0.11397 
H          H       0.92196   0.53714   0.38603 
H          H       0.07804   0.46286   0.38603 
H          H       0.36590   0.92376   0.10854 
H          H       0.63410   0.07624   0.10854 
H          H       0.92376   0.63410   0.39146 
H          H       0.07624   0.36590   0.39146 
H          H       0.29922   0.93215   0.34743 
H          H       0.70078   0.06785   0.34743 
H          H       0.93215   0.70078   0.15257 
H          H       0.06785   0.29922   0.15257 
H          H       0.20270   0.93291   0.34187 
H          H       0.79730   0.06709   0.34187 
H          H       0.93291   0.79730   0.15813 
H          H       0.06709   0.20270   0.15813 
H          H       0.03074   0.96704   0.00337 
N          N       0.05548   0.05625   0.99663 
N          N       0.94452   0.94375   0.99663 
N          N       0.05625   0.94452   0.50337 
N          N       0.94375   0.05548   0.50337 
C          C       0.04693   0.10834   0.96731 
C          C       0.95307   0.89166   0.96731 
C          C       0.10834   0.95307   0.53269 
C          C       0.89166   0.04693   0.53269 
C          C       0.09321   0.13269   0.91611 
C          C       0.90679   0.86731   0.91611 
C          C       0.13269   0.90679   0.58389 
C          C       0.86731   0.09321   0.58389 
C          C       0.22237   0.03993   0.58963 
C          C       0.77763   0.96007   0.58963 
C          C       0.03993   0.77763   0.91037 
C          C       0.96007   0.22237   0.91037 
C          C       0.27740   0.04070   0.58850 
C          C       0.72260   0.95930   0.58850 
C          C       0.04070   0.72260   0.91150 
C          C       0.95930   0.27740   0.91150 
C          C       0.38875   0.04461   0.94909 
C          C       0.61125   0.95539   0.94909 
C          C       0.04461   0.61125   0.55091 
C          C       0.95539   0.38875   0.55091 
C          C       0.44374   0.04483   0.94916 
C          C       0.55626   0.95517   0.94916 
C          C       0.04483   0.55626   0.55084 
C          C       0.95517   0.44374   0.55084 
H          H       0.17252   0.10274   0.89012 
H          H       0.82748   0.89726   0.89012 
H          H       0.10274   0.82748   0.60988 
H          H       0.89726   0.17252   0.60988 
H          H       0.20174   0.06991   0.65854 
H          H       0.79826   0.93009   0.65854 
H          H       0.06991   0.79826   0.84146 
H          H       0.93009   0.20174   0.84146 
H          H       0.29831   0.07094   0.65765 
H          H       0.70169   0.92906   0.65765 
H          H       0.07094   0.70169   0.84235 
H          H       0.92906   0.29831   0.84235 
H          H       0.36775   0.07890   0.90198 
H          H       0.63225   0.92110   0.90198 
H          H       0.07890   0.63225   0.59802 
H          H       0.92110   0.36775   0.59802 
H          H       0.46477   0.07899   0.90153 
H          H       0.53523   0.92101   0.90153 
H          H       0.07899   0.53523   0.59847 
H          H       0.92101   0.46477   0.59847 
C          C       0.13511   0.00094   0.50010 
C          C       0.86489   0.99906   0.50010 
C          C       0.00094   0.86489   0.99991 
C          C       0.99906   0.13511   0.99991 
C          C       0.19427   0.00135   0.50024 
C          C       0.80573   0.99865   0.50024 
C          C       0.00135   0.80573   0.99976 
C          C       0.99865   0.19427   0.99976 
C          C       0.30534   0.00158   0.50258 
C          C       0.69466   0.99842   0.50258 
C          C       0.00158   0.69466   0.99742 
C          C       0.99842   0.30534   0.99742 
N          N       0.36176   0.00135   0.50510 
N          N       0.63824   0.99865   0.50510 
N          N       0.00135   0.63824   0.99490 
N          N       0.99865   0.36176   0.99490 
C          C       0.47102   0.00038   0.50785 
C          C       0.52898   0.99962   0.50785 
C          C       0.00038   0.52898   0.99215 
C          C       0.99962   0.47102   0.99215 
C          C       0.44267   0.95655   0.56580 
C          C       0.55733   0.04345   0.56580 
C          C       0.95655   0.55733   0.93420 
C          C       0.04345   0.44267   0.93420 
C          C       0.38772   0.95774   0.56309 
C          C       0.61228   0.04226   0.56309 
C          C       0.95774   0.61228   0.93691 
C          C       0.04226   0.38772   0.93691 
C          C       0.27791   0.96245   0.91506 
C          C       0.72209   0.03755   0.91506 
C          C       0.96245   0.72209   0.58494 
C          C       0.03755   0.27791   0.58494 
C          C       0.22291   0.96303   0.91147 
C          C       0.77709   0.03697   0.91147 
C          C       0.96303   0.77709   0.58853 
C          C       0.03697   0.22291   0.58853 
C          C       0.89231   0.95157   0.96746 
C          C       0.10769   0.04843   0.96746 
C          C       0.95157   0.10769   0.53254 
C          C       0.04843   0.89231   0.53254 
C          C       0.86859   0.90497   0.91630 
C          C       0.13141   0.09503   0.91630 
C          C       0.90497   0.13141   0.58370 
C          C       0.09503   0.86859   0.58370 
H          H       0.10036   0.17388   0.88966 
H          H       0.89964   0.82612   0.88966 
H          H       0.17388   0.89964   0.61034 
H          H       0.82612   0.10036   0.61034 
H          H       0.46286   0.92196   0.61397 
H          H       0.53714   0.07804   0.61397 
H          H       0.92196   0.53714   0.88603 
H          H       0.07804   0.46286   0.88603 
H          H       0.36590   0.92376   0.60854 
H          H       0.63410   0.07624   0.60854 
H          H       0.92376   0.63410   0.89146 
H          H       0.07624   0.36590   0.89146 
H          H       0.29922   0.93215   0.84743 
H          H       0.70078   0.06785   0.84743 
H          H       0.93215   0.70078   0.65257 
H          H       0.06785   0.29922   0.65257 
H          H       0.20270   0.93291   0.84187 
H          H       0.79730   0.06709   0.84187 
H          H       0.93291   0.79730   0.65813 
H          H       0.06709   0.20270   0.65813 
H          H       0.03074   0.96704   0.50337 
H          H       0.96926   0.03296   0.00337 
H          H       0.96926   0.03296   0.50337 
