data_crystal

_cell_length_a    36.26580
_cell_length_b    38.10590
_cell_length_c    7.78600
_cell_angle_alpha 90.00000
_cell_angle_beta  90.00000
_cell_angle_gamma 120.00000

_space_group_name_Hall 'P 1'
_space_group_name_H-M_alt  'P 1'

loop_
_symmetry_equiv_pos_as_xyz
'x,y,z' 

loop_
_atom_site_label
_atom_site_type_symbol
_atom_site_fract_x
_atom_site_fract_y
_atom_site_fract_z
C          C       0.01665   0.47933   0.00074 
C          C       0.04528   0.51922   0.44208 
C          C       0.02987   0.54133   0.35158 
C          C       0.09085   0.53782   0.47165 
N          N       0.11663   0.57115   0.38933 
C          C       0.16155   0.59181   0.38869 
C          C       0.18459   0.57422   0.45426 
C          C       0.22817   0.59432   0.43384 
C          C       0.24948   0.63210   0.34618 
C          C       0.22621   0.64980   0.28447 
C          C       0.18282   0.62981   0.30605 
C          C       0.29514   0.65176   0.30784 
C          C       0.31353   0.62786   0.26864 
C          C       0.35580   0.64608   0.21880 
C          C       0.37956   0.68889   0.20573 
C          C       0.36212   0.71341   0.24793 
C          C       0.32012   0.69456   0.30133 
C          C       0.38753   0.75868   0.23344 
C          C       0.37542   0.62053   0.18477 
C          C       0.43009   0.77964   0.28119 
C          C       0.45397   0.82221   0.26477 
C          C       0.43570   0.84458   0.20447 
C          C       0.39332   0.82384   0.15550 
C          C       0.36948   0.78128   0.16958 
C          C       0.35226   0.58138   0.10956 
C          C       0.41107   0.56996   0.14536 
C          C       0.43477   0.60942   0.21561 
C          C       0.41703   0.63433   0.23611 
N          N       0.42666   0.54200   0.14538 
C          C       0.46539   0.55257   0.11396 
C          C       0.48067   0.52360   0.14538 
C          C       0.45308   0.48408   0.29130 
C          C       0.46658   0.45614   0.24053 
C          C       0.50902   0.46787   0.21341 
C          C       0.53648   0.50716   0.14874 
C          C       0.52311   0.53522   0.11827 
C          C       0.52513   0.44012   0.25659 
N          N       0.56123   0.44751   0.19658 
C          C       0.58080   0.42314   0.22006 
C          C       0.56041   0.38402   0.29679 
C          C       0.58083   0.36129   0.30957 
C          C       0.62176   0.37702   0.24519 
C          C       0.64192   0.41608   0.16876 
C          C       0.62152   0.43874   0.15654 
C          C       0.64325   0.35269   0.25543 
C          C       0.62126   0.31051   0.22265 
C          C       0.64138   0.28729   0.23151 
C          C       0.68461   0.30727   0.26606 
C          C       0.70742   0.34967   0.29677 
C          C       0.68605   0.37179   0.29538 
C          C       0.75359   0.37123   0.32591 
C          C       0.61682   0.24210   0.20921 
C          C       0.77274   0.35214   0.41370 
C          C       0.81625   0.37261   0.43692 
C          C       0.84150   0.41235   0.37368 
C          C       0.82240   0.43185   0.28890 
C          C       0.77908   0.41129   0.26348 
C          C       0.57603   0.21972   0.27742 
C          C       0.55329   0.17718   0.26326 
C          C       0.57048   0.15593   0.18140 
C          C       0.61127   0.17801   0.11254 
C          C       0.63412   0.22075   0.12574 
N          N       0.54625   0.11207   0.18158 
C          C       0.55385   0.08671   0.09695 
C          C       0.52666   0.04220   0.12373 
C          C       0.48925   0.02731   0.21890 
C          C       0.53783   0.01412   0.05751 
N          N       0.46118   0.88808   0.18659 
O          O       0.02924   0.45643   0.10133 
C          C       0.05189   0.44054   0.00969 
C          C       0.02699   0.39481   0.01341 
C          C       0.04041   0.37199   0.43341 
C          C       0.44759   0.91332   0.21447 
C          C       0.47467   0.95755   0.18360 
C          C       0.51191   0.97229   0.08747 
C          C       0.46322   0.98555   0.24745 
O          O       0.42880   0.97313   0.35830 
C          C       0.38959   0.95958   0.27217 
C          C       0.37444   0.98882   0.31156 
C          C       0.33897   0.98405   0.24248 
N          N       0.88595   0.43230   0.40409 
C          C       0.91411   0.46530   0.32659 
C          C       0.95880   0.48443   0.37371 
C          C       0.97390   0.46249   0.46734 
C          C       0.98723   0.52472   0.32014 
O          O       0.97441   0.54851   0.22680 
C          C       0.94976   0.56133   0.32400 
C          C       0.97654   0.60554   0.37132 
C          C       0.96839   0.63433   0.31396 
O          O       0.57211   0.02652   0.44589 
O          O       0.55282   0.57381   0.05471 
C          C       0.56355   0.60767   0.16876 
C          C       0.60720   0.62341   0.23494 
C          C       0.63868   0.66089   0.19681 
O          O       0.43717   0.41772   0.30729 
C          C       0.42865   0.38316   0.20116 
C          C       0.38373   0.36216   0.14553 
C          C       0.36495   0.32455   0.07663 
C          C       0.61203   0.04367   0.46974 
C          C       0.63096   0.01754   0.49100 
C          C       0.66753   0.02552   0.06089 
H          H       0.05205   0.57182   0.30642 
H          H       0.10328   0.52424   0.06075 
H          H       0.16830   0.54515   0.02025 
H          H       0.24647   0.58115   0.48532 
H          H       0.24238   0.67909   0.22013 
H          H       0.16461   0.64347   0.25876 
H          H       0.29453   0.59498   0.27746 
H          H       0.41242   0.70324   0.16151 
H          H       0.30609   0.71287   0.33884 
H          H       0.44513   0.76319   0.33151 
H          H       0.48752   0.83802   0.30007 
H          H       0.37837   0.84044   0.10600 
H          H       0.33622   0.76547   0.12999 
H          H       0.46763   0.62061   0.25460 
H          H       0.43578   0.66440   0.29207 
H          H       0.48711   0.58274   0.06428 
H          H       0.41877   0.47085   0.27772 
H          H       0.56944   0.51595   0.12151 
H          H       0.50659   0.41381   0.33813 
H          H       0.52820   0.37154   0.34662 
H          H       0.56476   0.33148   0.36954 
H          H       0.67410   0.42863   0.11848 
H          H       0.63765   0.46861   0.09713 
H          H       0.58760   0.29560   0.18944 
H          H       0.70136   0.29022   0.26975 
H          H       0.70318   0.40400   0.32577 
H          H       0.75333   0.32146   0.46283 
H          H       0.83122   0.35798   0.00459 
H          H       0.84175   0.46292   0.24390 
H          H       0.76422   0.42590   0.19481 
H          H       0.56159   0.23521   0.34219 
H          H       0.52141   0.16035   0.31762 
H          H       0.62560   0.16234   0.04842 
H          H       0.66586   0.23759   0.07008 
H          H       0.58023   0.09820   0.00631 
H          H       0.48010   0.04832   0.27175 
H          H       0.08283   0.45117   0.06959 
H          H       0.05633   0.45091   0.37699 
H          H       0.99584   0.38601   0.45952 
H          H       0.02353   0.38623   0.14838 
H          H       0.07118   0.37881   0.48526 
H          H       0.01743   0.34006   0.45374 
H          H       0.04350   0.37859   0.29639 
H          H       0.41530   0.90167   0.26204 
H          H       0.52105   0.95124   0.03500 
H          H       0.36631   0.92941   0.31707 
H          H       0.39408   0.95871   0.13426 
H          H       0.39981   0.01866   0.27249 
H          H       0.37032   0.98827   0.45027 
H          H       0.31236   0.95483   0.28088 
H          H       0.33344   0.00816   0.28647 
H          H       0.34185   0.98522   0.10310 
H          H       0.90405   0.47857   0.22606 
H          H       0.95162   0.43211   0.01331 
H          H       0.93839   0.54328   0.44077 
H          H       0.92267   0.55703   0.24750 
H          H       0.00877   0.61477   0.32936 
H          H       0.97572   0.60675   0.01093 
H          H       0.93676   0.62730   0.35579 
H          H       0.99200   0.66365   0.36550 
H          H       0.96982   0.63531   0.17422 
H          H       0.54121   0.59762   0.27570 
H          H       0.56180   0.63152   0.09863 
H          H       0.61758   0.60269   0.18978 
H          H       0.60467   0.62187   0.37442 
H          H       0.43482   0.36235   0.27487 
H          H       0.44928   0.39352   0.08878 
H          H       0.38106   0.38162   0.04987 
H          H       0.36503   0.36022   0.25829 
H          H       0.36586   0.30352   0.16894 
H          H       0.33198   0.31492   0.04494 
H          H       0.38189   0.32493   0.46052 
H          H       0.66821   0.03407   0.19481 
H          H       0.67089   0.99871   0.05374 
H          H       0.69365   0.05035   0.49177 
H          H       0.61916   0.06178   0.08320 
H          H       0.62568   0.06004   0.35347 
H          H       0.63258   0.00814   0.36308 
H          H       0.61057   0.99888   0.09198 
C          C       0.37241   0.55750   0.13473 
H          H       0.35247   0.52658   0.14508 
H          H       0.32399   0.57119   0.04390 
H          H       0.64254   0.66406   0.06042 
H          H       0.66770   0.66583   0.25424 
H          H       0.63090   0.68266   0.24537 
C          C       0.01665   0.47933   0.50074 
C          C       0.04528   0.51922   0.94208 
C          C       0.02987   0.54133   0.85158 
C          C       0.09085   0.53782   0.97165 
N          N       0.11663   0.57115   0.88933 
C          C       0.16155   0.59181   0.88868 
C          C       0.18459   0.57422   0.95426 
C          C       0.22817   0.59432   0.93384 
C          C       0.24948   0.63210   0.84618 
C          C       0.22621   0.64980   0.78447 
C          C       0.18282   0.62981   0.80605 
C          C       0.29514   0.65176   0.80784 
C          C       0.31353   0.62786   0.76864 
C          C       0.35580   0.64608   0.71881 
C          C       0.37956   0.68889   0.70573 
C          C       0.36212   0.71341   0.74792 
C          C       0.32012   0.69456   0.80133 
C          C       0.38753   0.75868   0.73344 
C          C       0.37542   0.62053   0.68477 
C          C       0.43009   0.77964   0.78119 
C          C       0.45397   0.82221   0.76477 
C          C       0.43570   0.84458   0.70447 
C          C       0.39332   0.82384   0.65550 
C          C       0.36948   0.78128   0.66958 
C          C       0.35226   0.58138   0.60956 
C          C       0.41107   0.56996   0.64536 
C          C       0.43477   0.60942   0.71561 
C          C       0.41703   0.63433   0.73611 
N          N       0.42666   0.54200   0.64539 
C          C       0.46539   0.55257   0.61396 
C          C       0.48067   0.52360   0.64539 
C          C       0.45308   0.48408   0.79131 
C          C       0.46658   0.45614   0.74053 
C          C       0.50902   0.46787   0.71341 
C          C       0.53648   0.50716   0.64875 
C          C       0.52311   0.53522   0.61826 
C          C       0.52513   0.44012   0.75659 
N          N       0.56123   0.44751   0.69658 
C          C       0.58080   0.42314   0.72006 
C          C       0.56041   0.38402   0.79679 
C          C       0.58083   0.36129   0.80957 
C          C       0.62176   0.37702   0.74520 
C          C       0.64192   0.41608   0.66876 
C          C       0.62152   0.43874   0.65654 
C          C       0.64325   0.35269   0.75543 
C          C       0.62126   0.31051   0.72264 
C          C       0.64138   0.28729   0.73152 
C          C       0.68461   0.30727   0.76606 
C          C       0.70742   0.34967   0.79677 
C          C       0.68605   0.37179   0.79538 
C          C       0.75359   0.37123   0.82591 
C          C       0.61682   0.24210   0.70921 
C          C       0.77274   0.35214   0.91370 
C          C       0.81625   0.37261   0.93692 
C          C       0.84150   0.41235   0.87368 
C          C       0.82240   0.43185   0.78890 
C          C       0.77908   0.41129   0.76348 
C          C       0.57603   0.21972   0.77742 
C          C       0.55329   0.17718   0.76326 
C          C       0.57048   0.15593   0.68140 
C          C       0.61127   0.17801   0.61254 
C          C       0.63412   0.22075   0.62574 
N          N       0.54625   0.11207   0.68158 
C          C       0.55385   0.08671   0.59695 
C          C       0.52666   0.04220   0.62372 
C          C       0.48925   0.02731   0.71890 
C          C       0.53783   0.01412   0.55752 
N          N       0.46118   0.88808   0.68659 
O          O       0.02924   0.45643   0.60133 
C          C       0.05189   0.44054   0.50969 
C          C       0.02699   0.39481   0.51341 
C          C       0.04041   0.37199   0.93341 
C          C       0.44759   0.91332   0.71448 
C          C       0.47467   0.95755   0.68359 
C          C       0.51191   0.97229   0.58747 
C          C       0.46322   0.98555   0.74745 
O          O       0.42880   0.97313   0.85829 
C          C       0.38959   0.95958   0.77216 
C          C       0.37444   0.98882   0.81157 
C          C       0.33897   0.98405   0.74248 
N          N       0.88595   0.43230   0.90409 
C          C       0.91411   0.46530   0.82659 
C          C       0.95880   0.48443   0.87371 
C          C       0.97390   0.46249   0.96733 
C          C       0.98723   0.52472   0.82014 
O          O       0.97441   0.54851   0.72680 
C          C       0.94976   0.56133   0.82400 
C          C       0.97654   0.60554   0.87132 
C          C       0.96839   0.63433   0.81396 
O          O       0.57211   0.02652   0.94588 
O          O       0.55282   0.57381   0.55472 
C          C       0.56355   0.60767   0.66876 
C          C       0.60720   0.62341   0.73494 
C          C       0.63868   0.66089   0.69681 
O          O       0.43717   0.41772   0.80729 
C          C       0.42865   0.38316   0.70116 
C          C       0.38373   0.36216   0.64553 
C          C       0.36495   0.32455   0.57663 
C          C       0.61203   0.04367   0.96974 
C          C       0.63096   0.01754   0.99100 
C          C       0.66753   0.02552   0.56089 
H          H       0.05205   0.57182   0.80641 
H          H       0.10328   0.52424   0.56075 
H          H       0.16830   0.54515   0.52025 
H          H       0.24647   0.58115   0.98532 
H          H       0.24238   0.67909   0.72014 
H          H       0.16461   0.64347   0.75876 
H          H       0.29453   0.59498   0.77746 
H          H       0.41242   0.70324   0.66151 
H          H       0.30609   0.71287   0.83884 
H          H       0.44513   0.76319   0.83151 
H          H       0.48752   0.83802   0.80007 
H          H       0.37837   0.84044   0.60600 
H          H       0.33622   0.76547   0.63000 
H          H       0.46763   0.62061   0.75460 
H          H       0.43578   0.66440   0.79207 
H          H       0.48711   0.58274   0.56429 
H          H       0.41877   0.47085   0.77772 
H          H       0.56944   0.51595   0.62151 
H          H       0.50659   0.41381   0.83813 
H          H       0.52820   0.37154   0.84662 
H          H       0.56476   0.33148   0.86954 
H          H       0.67410   0.42863   0.61848 
H          H       0.63765   0.46861   0.59713 
H          H       0.58760   0.29560   0.68944 
H          H       0.70136   0.29022   0.76975 
H          H       0.70318   0.40400   0.82578 
H          H       0.75333   0.32146   0.96284 
H          H       0.83122   0.35798   0.50459 
H          H       0.84175   0.46292   0.74390 
H          H       0.76422   0.42590   0.69481 
H          H       0.56159   0.23521   0.84219 
H          H       0.52141   0.16035   0.81762 
H          H       0.62560   0.16234   0.54842 
H          H       0.66586   0.23759   0.57008 
H          H       0.58023   0.09820   0.50631 
H          H       0.48010   0.04832   0.77175 
H          H       0.08283   0.45117   0.56959 
H          H       0.05633   0.45091   0.87699 
H          H       0.99584   0.38601   0.95952 
H          H       0.02353   0.38623   0.64838 
H          H       0.07118   0.37881   0.98526 
H          H       0.01743   0.34006   0.95373 
H          H       0.04350   0.37859   0.79639 
H          H       0.41530   0.90167   0.76204 
H          H       0.52105   0.95124   0.53500 
H          H       0.36631   0.92941   0.81707 
H          H       0.39408   0.95871   0.63426 
H          H       0.39981   0.01866   0.77249 
H          H       0.37032   0.98827   0.95027 
H          H       0.31236   0.95483   0.78088 
H          H       0.33344   0.00816   0.78648 
H          H       0.34185   0.98522   0.60310 
H          H       0.90405   0.47857   0.72606 
H          H       0.95162   0.43211   0.51331 
H          H       0.93839   0.54328   0.94077 
H          H       0.92267   0.55703   0.74750 
H          H       0.00877   0.61477   0.82936 
H          H       0.97572   0.60675   0.51093 
H          H       0.93676   0.62730   0.85579 
H          H       0.99200   0.66365   0.86550 
H          H       0.96982   0.63531   0.67422 
H          H       0.54121   0.59762   0.77570 
H          H       0.56180   0.63152   0.59863 
H          H       0.61758   0.60269   0.68978 
H          H       0.60467   0.62187   0.87442 
H          H       0.43482   0.36235   0.77487 
H          H       0.44928   0.39352   0.58877 
H          H       0.38106   0.38162   0.54987 
H          H       0.36503   0.36022   0.75829 
H          H       0.36586   0.30352   0.66893 
H          H       0.33198   0.31492   0.54495 
H          H       0.38189   0.32493   0.96052 
H          H       0.66821   0.03407   0.69481 
H          H       0.67089   0.99871   0.55373 
H          H       0.69365   0.05035   0.99177 
H          H       0.61916   0.06178   0.58320 
H          H       0.62568   0.06004   0.85347 
H          H       0.63258   0.00814   0.86308 
H          H       0.61057   0.99888   0.59198 
C          C       0.37241   0.55750   0.63474 
H          H       0.35247   0.52658   0.64508 
H          H       0.32399   0.57119   0.54390 
H          H       0.64254   0.66406   0.56043 
H          H       0.66770   0.66583   0.75424 
H          H       0.63090   0.68266   0.74537 
