data_crystal
 
_cell_length_a    45.58260
_cell_length_b    25.68600
_cell_length_c    7.56980
_cell_angle_alpha 71.78760
_cell_angle_beta  95.81680
_cell_angle_gamma 91.91170
 
_space_group_name_Hall 'P 1'
_space_group_name_H-M_alt  'P 1'
 
loop_
_symmetry_equiv_pos_as_xyz
 'x,y,z' 
 
loop_
_atom_site_label
_atom_site_type_symbol
_atom_site_fract_x
_atom_site_fract_y
_atom_site_fract_z
C          C       0.10907   0.89425   0.13208 
C          C       0.10149   0.84124   0.24118 
C          C       0.11917   0.79630   0.25731 
C          C       0.14544   0.80328   0.17182 
C          C       0.15383   0.85650   0.06854 
C          C       0.13582   0.90128   0.04945 
C          C       0.21639   0.50245   0.15926 
C          C       0.22697   0.45178   0.15802 
C          C       0.25757   0.44328   0.17895 
C          C       0.27733   0.48393   0.20435 
C          C       0.26630   0.53407   0.20627 
C          C       0.23580   0.54417   0.18166 
C          C       0.22423   0.59849   0.17491 
C          C       0.20615   0.40798   0.13346 
C          C       0.30954   0.47411   0.22564 
C          C       0.32146   0.42366   0.33905 
C          C       0.35170   0.41425   0.35355 
C          C       0.37001   0.45551   0.25371 
N          N       0.35813   0.50436   0.14531 
C          C       0.32875   0.51460   0.12987 
C          C       0.24003   0.64701   0.09866 
C          C       0.22846   0.69782   0.08586 
C          C       0.20086   0.70029   0.14838 
N          N       0.18588   0.65311   0.22295 
C          C       0.19671   0.60315   0.23783 
C          C       0.17887   0.42102   0.02503 
C          C       0.15956   0.37957   0.00462 
C          C       0.16754   0.32478   0.09166 
N          N       0.19393   0.31261   0.19654 
C          C       0.21307   0.35220   0.21974 
C          C       0.18782   0.75337   0.13128 
C          C       0.40180   0.44581   0.26330 
C          C       0.14751   0.28063   0.07066 
N          N       0.16191   0.75509   0.18653 
C          C       0.10549   0.08684   0.13767 
C          C       0.13254   0.08364   0.24808 
C          C       0.14887   0.13092   0.24434 
C          C       0.13860   0.18251   0.13201 
C          C       0.11203   0.18594   0.01670 
C          C       0.09599   0.13857   0.01785 
N          N       0.15579   0.22985   0.14002 
C          C       0.51114   0.47971   0.12817 
C          C       0.54342   0.47928   0.11206 
C          C       0.55787   0.43027   0.12778 
C          C       0.58815   0.42978   0.11276 
C          C       0.60448   0.47845   0.07537 
C          C       0.59023   0.52775   0.05976 
C          C       0.56004   0.52809   0.07769 
C          C       0.49365   0.52461   0.01880 
C          C       0.46334   0.52480   0.03313 
C          C       0.44969   0.48018   0.15460 
C          C       0.46702   0.43485   0.26348 
C          C       0.49736   0.43467   0.24977 
N          N       0.41845   0.48323   0.16334 
C          C       0.08853   0.03597   0.13626 
C          C       0.05734   0.03251   0.13094 
C          C       0.04253   0.98619   0.10025 
C          C       0.05900   0.94193   0.08654 
C          C       0.09025   0.94263   0.11511 
C          C       0.10428   0.99032   0.13365 
C          C       0.04054   0.07322   0.16099 
C          C       0.00995   0.07122   0.14424 
C          C       0.99465   0.02847   0.09634 
C          C       0.01111   0.98417   0.08291 
C          C       0.99630   0.93788   0.05212 
C          C       0.01312   0.89711   0.02240 
C          C       0.04371   0.89910   0.03897 
C          C       0.96339   0.02789   0.06724 
C          C       0.94933   0.98025   0.04851 
C          C       0.96509   0.93452   0.04632 
C          C       0.94809   0.88371   0.04458 
C          C       0.92101   0.88704   0.43414 
C          C       0.90453   0.83987   0.43840 
C          C       0.91477   0.78820   0.05074 
C          C       0.94139   0.78465   0.16565 
C          C       0.95754   0.83195   0.16446 
C          C       0.83716   0.46820   0.02416 
C          C       0.82652   0.51847   0.02883 
C          C       0.79589   0.52619   0.01412 
C          C       0.77615   0.48520   0.49114 
C          C       0.78727   0.43565   0.48431 
C          C       0.81780   0.42619   0.00376 
C          C       0.82941   0.37202   0.00899 
C          C       0.84733   0.56247   0.05175 
C          C       0.74389   0.49361   0.48017 
C          C       0.73101   0.54426   0.37699 
C          C       0.70073   0.55199   0.37204 
C          C       0.68336   0.50885   0.47089 
N          N       0.69616   0.45991   0.06937 
C          C       0.72555   0.45131   0.07576 
C          C       0.81381   0.32335   0.08662 
C          C       0.82536   0.27267   0.09810 
C          C       0.85282   0.27040   0.03368 
N          N       0.86767   0.31768   0.45819 
C          C       0.85680   0.36757   0.44403 
C          C       0.87485   0.54970   0.15724 
C          C       0.89415   0.59125   0.17648 
C          C       0.88589   0.64596   0.09120 
N          N       0.85923   0.65792   0.48963 
C          C       0.84010   0.61816   0.46766 
C          C       0.86589   0.21733   0.05068 
C          C       0.65159   0.51649   0.47174 
C          C       0.90598   0.69020   0.10983 
N          N       0.89746   0.74089   0.04359 
N          N       0.63550   0.47587   0.06002 
C          C       0.94459   0.07633   0.04997 
C          C       0.95228   0.12938   0.44169 
C          C       0.93466   0.17438   0.42562 
C          C       0.90828   0.16744   0.00991 
C          C       0.89976   0.11423   0.11202 
C          C       0.91774   0.06938   0.13157 
N          N       0.89177   0.21563   0.49498 
H          H       0.08193   0.83440   0.31508 
H          H       0.11252   0.75574   0.33886 
H          H       0.17363   0.86409   0.49719 
H          H       0.14272   0.94140   0.46692 
H          H       0.30744   0.39170   0.41763 
H          H       0.36069   0.37516   0.44166 
H          H       0.32034   0.55378   0.03915 
H          H       0.26090   0.64599   0.04339 
H          H       0.24069   0.73490   0.02472 
H          H       0.18382   0.56728   0.30049 
H          H       0.17252   0.46310   0.45282 
H          H       0.13874   0.39012   0.41963 
H          H       0.23336   0.33982   0.30885 
H          H       0.20004   0.79034   0.07063 
H          H       0.41068   0.40697   0.35268 
H          H       0.12578   0.29145   0.49927 
H          H       0.14101   0.04468   0.33940 
H          H       0.16937   0.12752   0.33278 
H          H       0.10387   0.22453   0.42124 
H          H       0.07628   0.14249   0.42258 
H          H       0.54588   0.39203   0.15160 
H          H       0.59887   0.39138   0.12738 
H          H       0.60240   0.56576   0.03870 
H          H       0.54992   0.56642   0.06993 
H          H       0.50323   0.55929   0.41940 
H          H       0.45035   0.55978   0.44745 
H          H       0.45771   0.39977   0.36171 
H          H       0.51018   0.40038   0.34191 
H          H       0.12809   0.99201   0.14624 
H          H       0.05080   0.10657   0.20249 
H          H       0.99853   0.10306   0.17447 
H          H       0.00285   0.86374   0.48117 
H          H       0.05516   0.86716   0.00923 
H          H       0.92550   0.97873   0.03526 
H          H       0.91258   0.92604   0.34270 
H          H       0.88396   0.84343   0.35029 
H          H       0.94957   0.74596   0.26051 
H          H       0.97731   0.82789   0.25947 
H          H       0.74430   0.57764   0.29913 
H          H       0.69100   0.59123   0.29224 
H          H       0.73464   0.41186   0.15873 
H          H       0.79313   0.32409   0.14450 
H          H       0.81328   0.23551   0.16038 
H          H       0.86958   0.40353   0.38059 
H          H       0.88136   0.50771   0.22832 
H          H       0.91519   0.58078   0.25906 
H          H       0.81954   0.63031   0.38161 
H          H       0.85372   0.18038   0.11244 
H          H       0.64183   0.55601   0.39532 
H          H       0.92798   0.67949   0.17661 
H          H       0.97195   0.13626   0.36883 
H          H       0.94146   0.21495   0.34521 
H          H       0.87980   0.10674   0.18151 
H          H       0.91075   0.02926   0.21356 
H          H       0.19291   0.50956   0.14141 
H          H       0.26619   0.40558   0.16960 
H          H       0.28159   0.56479   0.23067 
H          H       0.86065   0.46164   0.03805 
H          H       0.78729   0.56343   0.02734 
H          H       0.77199   0.40471   0.46137 
C          C       0.10907   0.89425   0.63208 
C          C       0.10149   0.84124   0.74118 
C          C       0.11917   0.79630   0.75732 
C          C       0.14544   0.80328   0.67182 
C          C       0.15383   0.85650   0.56854 
C          C       0.13582   0.90128   0.54945 
C          C       0.21639   0.50245   0.65926 
C          C       0.22697   0.45178   0.65803 
C          C       0.25757   0.44328   0.67895 
C          C       0.27733   0.48393   0.70435 
C          C       0.26630   0.53407   0.70627 
C          C       0.23580   0.54417   0.68166 
C          C       0.22423   0.59849   0.67490 
C          C       0.20615   0.40798   0.63346 
C          C       0.30954   0.47411   0.72564 
C          C       0.32146   0.42366   0.83905 
C          C       0.35170   0.41425   0.85355 
C          C       0.37001   0.45551   0.75371 
N          N       0.35813   0.50436   0.64531 
C          C       0.32875   0.51460   0.62987 
C          C       0.24003   0.64701   0.59866 
C          C       0.22846   0.69782   0.58586 
C          C       0.20086   0.70029   0.64838 
N          N       0.18588   0.65311   0.72295 
C          C       0.19671   0.60315   0.73783 
C          C       0.17887   0.42102   0.52503 
C          C       0.15956   0.37957   0.50462 
C          C       0.16754   0.32478   0.59166 
N          N       0.19393   0.31261   0.69655 
C          C       0.21307   0.35220   0.71974 
C          C       0.18782   0.75337   0.63128 
C          C       0.40180   0.44581   0.76330 
C          C       0.14751   0.28063   0.57066 
N          N       0.16191   0.75509   0.68653 
C          C       0.10549   0.08684   0.63767 
C          C       0.13254   0.08364   0.74808 
C          C       0.14887   0.13092   0.74434 
C          C       0.13860   0.18251   0.63201 
C          C       0.11203   0.18594   0.51670 
C          C       0.09599   0.13857   0.51785 
N          N       0.15579   0.22985   0.64002 
C          C       0.51114   0.47971   0.62817 
C          C       0.54342   0.47928   0.61206 
C          C       0.55787   0.43027   0.62778 
C          C       0.58815   0.42978   0.61276 
C          C       0.60448   0.47845   0.57537 
C          C       0.59023   0.52775   0.55976 
C          C       0.56004   0.52809   0.57769 
C          C       0.49365   0.52461   0.51880 
C          C       0.46334   0.52480   0.53313 
C          C       0.44969   0.48018   0.65460 
C          C       0.46702   0.43485   0.76348 
C          C       0.49736   0.43467   0.74977 
N          N       0.41845   0.48323   0.66334 
C          C       0.08853   0.03597   0.63626 
C          C       0.05734   0.03251   0.63094 
C          C       0.04253   0.98619   0.60025 
C          C       0.05900   0.94193   0.58654 
C          C       0.09025   0.94263   0.61511 
C          C       0.10428   0.99032   0.63365 
C          C       0.04054   0.07322   0.66099 
C          C       0.00995   0.07122   0.64424 
C          C       0.99465   0.02847   0.59634 
C          C       0.01111   0.98417   0.58291 
C          C       0.99630   0.93788   0.55212 
C          C       0.01312   0.89711   0.52240 
C          C       0.04371   0.89910   0.53897 
C          C       0.96339   0.02789   0.56724 
C          C       0.94933   0.98025   0.54851 
C          C       0.96509   0.93452   0.54632 
C          C       0.94809   0.88371   0.54458 
C          C       0.92101   0.88704   0.93414 
C          C       0.90453   0.83987   0.93840 
C          C       0.91477   0.78820   0.55074 
C          C       0.94139   0.78465   0.66565 
C          C       0.95754   0.83195   0.66446 
C          C       0.83716   0.46820   0.52416 
C          C       0.82652   0.51847   0.52883 
C          C       0.79589   0.52619   0.51412 
C          C       0.77615   0.48520   0.99114 
C          C       0.78727   0.43565   0.98432 
C          C       0.81780   0.42619   0.50376 
C          C       0.82941   0.37202   0.50899 
C          C       0.84733   0.56247   0.55175 
C          C       0.74389   0.49361   0.98017 
C          C       0.73101   0.54426   0.87699 
C          C       0.70073   0.55199   0.87204 
C          C       0.68336   0.50885   0.97089 
N          N       0.69616   0.45991   0.56937 
C          C       0.72555   0.45131   0.57576 
C          C       0.81381   0.32335   0.58662 
C          C       0.82536   0.27267   0.59810 
C          C       0.85282   0.27040   0.53368 
N          N       0.86767   0.31768   0.95819 
C          C       0.85680   0.36757   0.94403 
C          C       0.87485   0.54970   0.65724 
C          C       0.89415   0.59125   0.67648 
C          C       0.88589   0.64596   0.59120 
N          N       0.85923   0.65792   0.98962 
C          C       0.84010   0.61816   0.96766 
C          C       0.86589   0.21733   0.55068 
C          C       0.65159   0.51649   0.97173 
C          C       0.90598   0.69020   0.60983 
N          N       0.89746   0.74089   0.54359 
N          N       0.63550   0.47587   0.56002 
C          C       0.94459   0.07633   0.54997 
C          C       0.95228   0.12938   0.94169 
C          C       0.93466   0.17438   0.92562 
C          C       0.90828   0.16744   0.50991 
C          C       0.89976   0.11423   0.61202 
C          C       0.91774   0.06938   0.63157 
N          N       0.89177   0.21563   0.99498 
H          H       0.08193   0.83440   0.81508 
H          H       0.11252   0.75574   0.83886 
H          H       0.17363   0.86409   0.99719 
H          H       0.14272   0.94140   0.96692 
H          H       0.30744   0.39170   0.91763 
H          H       0.36069   0.37516   0.94166 
H          H       0.32034   0.55378   0.53915 
H          H       0.26090   0.64599   0.54339 
H          H       0.24069   0.73490   0.52472 
H          H       0.18382   0.56728   0.80049 
H          H       0.17252   0.46310   0.95282 
H          H       0.13874   0.39012   0.91963 
H          H       0.23336   0.33982   0.80885 
H          H       0.20004   0.79034   0.57063 
H          H       0.41068   0.40697   0.85268 
H          H       0.12578   0.29145   0.99926 
H          H       0.14101   0.04468   0.83940 
H          H       0.16937   0.12752   0.83278 
H          H       0.10387   0.22453   0.92124 
H          H       0.07628   0.14249   0.92258 
H          H       0.54588   0.39203   0.65160 
H          H       0.59887   0.39138   0.62738 
H          H       0.60240   0.56576   0.53870 
H          H       0.54992   0.56642   0.56993 
H          H       0.50323   0.55929   0.91941 
H          H       0.45035   0.55978   0.94745 
H          H       0.45771   0.39977   0.86171 
H          H       0.51018   0.40038   0.84191 
H          H       0.12809   0.99201   0.64624 
H          H       0.05080   0.10657   0.70249 
H          H       0.99853   0.10306   0.67447 
H          H       0.00285   0.86374   0.98117 
H          H       0.05516   0.86716   0.50923 
H          H       0.92550   0.97873   0.53526 
H          H       0.91258   0.92604   0.84271 
H          H       0.88396   0.84343   0.85028 
H          H       0.94957   0.74596   0.76051 
H          H       0.97731   0.82789   0.75947 
H          H       0.74430   0.57764   0.79913 
H          H       0.69100   0.59123   0.79224 
H          H       0.73464   0.41186   0.65873 
H          H       0.79313   0.32409   0.64451 
H          H       0.81328   0.23551   0.66038 
H          H       0.86958   0.40353   0.88059 
H          H       0.88136   0.50771   0.72832 
H          H       0.91519   0.58078   0.75906 
H          H       0.81954   0.63031   0.88161 
H          H       0.85372   0.18038   0.61244 
H          H       0.64183   0.55601   0.89533 
H          H       0.92798   0.67949   0.67661 
H          H       0.97195   0.13626   0.86883 
H          H       0.94146   0.21495   0.84522 
H          H       0.87980   0.10674   0.68151 
H          H       0.91075   0.02926   0.71356 
H          H       0.19291   0.50956   0.64141 
H          H       0.26619   0.40558   0.66960 
H          H       0.28159   0.56479   0.73067 
H          H       0.86065   0.46164   0.53805 
H          H       0.78729   0.56343   0.52734 
H          H       0.77199   0.40471   0.96137 
