data_crystal

_cell_length_a    52.60970
_cell_length_b    25.28980
_cell_length_c    7.62600
_cell_angle_alpha 84.65640
_cell_angle_beta  77.77460
_cell_angle_gamma 90.98470

_space_group_name_Hall 'P 1'
_space_group_name_H-M_alt  'P 1'

loop_
_symmetry_equiv_pos_as_xyz
'x,y,z' 

loop_
_atom_site_label
_atom_site_type_symbol
_atom_site_fract_x
_atom_site_fract_y
_atom_site_fract_z
C          C       0.09772   0.87063   0.43887 
C          C       0.08996   0.82072   0.03475 
C          C       0.10483   0.77649   0.49897 
C          C       0.12867   0.78148   0.37594 
C          C       0.13707   0.83124   0.28147 
C          C       0.12155   0.87532   0.31140 
N          N       0.19810   0.48380   0.39065 
C          C       0.20675   0.43482   0.43033 
N          N       0.23094   0.43032   0.46446 
C          C       0.24642   0.47435   0.45954 
N          N       0.23739   0.52312   0.42001 
C          C       0.21327   0.52817   0.38494 
C          C       0.20297   0.58128   0.34771 
C          C       0.18965   0.38709   0.43816 
C          C       0.27282   0.46916   0.49656 
C          C       0.28310   0.41881   0.02280 
C          C       0.30828   0.41401   0.05292 
C          C       0.32369   0.45938   0.05751 
C          C       0.31342   0.50977   0.03300 
C          C       0.28823   0.51458   0.00335 
C          C       0.21749   0.62797   0.35485 
C          C       0.20656   0.67769   0.33682 
C          C       0.18110   0.68170   0.31013 
C          C       0.16710   0.63538   0.29307 
C          C       0.17791   0.58575   0.31204 
C          C       0.16480   0.39252   0.39966 
C          C       0.14833   0.34809   0.40962 
C          C       0.15626   0.29719   0.45809 
C          C       0.18118   0.29134   0.49504 
C          C       0.19773   0.33595   0.48547 
C          C       0.16870   0.73353   0.31306 
C          C       0.35073   0.45340   0.07895 
C          C       0.13812   0.25139   0.46783 
N          N       0.14351   0.73487   0.35071 
C          C       0.09771   0.06030   0.06064 
C          C       0.12228   0.06026   0.10652 
C          C       0.13726   0.10752   0.08944 
C          C       0.12820   0.15577   0.02594 
C          C       0.10390   0.15577   0.47619 
C          C       0.08904   0.10869   0.49290 
N          N       0.14432   0.20321   0.01264 
C          C       0.47581   0.50681   0.05680 
C          C       0.49234   0.46549   0.09933 
C          C       0.51892   0.47769   0.09849 
C          C       0.52891   0.53093   0.05451 
C          C       0.51247   0.57180   0.00996 
C          C       0.48672   0.55834   0.00606 
C          C       0.48323   0.41254   0.14563 
C          C       0.49942   0.37267   0.18553 
C          C       0.52548   0.38342   0.18988 
C          C       0.53546   0.43667   0.14604 
C          C       0.56205   0.44885   0.14508 
C          C       0.57117   0.50180   0.09858 
C          C       0.55498   0.54166   0.05865 
C          C       0.54192   0.34255   0.23430 
C          C       0.56768   0.35598   0.23811 
C          C       0.57858   0.40750   0.18749 
C          C       0.52024   0.62978   0.47999 
C          C       0.44687   0.50043   0.07278 
C          C       0.60751   0.41392   0.17197 
C          C       0.53414   0.28460   0.26443 
C          C       0.62409   0.37497   0.09495 
C          C       0.65078   0.37771   0.09088 
C          C       0.66184   0.42027   0.15606 
C          C       0.64561   0.45943   0.23237 
C          C       0.61877   0.45533   0.24397 
C          C       0.54278   0.64967   0.35497 
C          C       0.54944   0.70400   0.32961 
C          C       0.53326   0.73980   0.42485 
C          C       0.51044   0.72069   0.04635 
C          C       0.50399   0.66629   0.07372 
C          C       0.43033   0.53931   0.15049 
C          C       0.40362   0.53667   0.15530 
C          C       0.39248   0.49413   0.09016 
C          C       0.40867   0.45503   0.01328 
C          C       0.43553   0.45903   0.00091 
C          C       0.51158   0.26476   0.38938 
C          C       0.50490   0.21044   0.41485 
C          C       0.52108   0.17462   0.31974 
C          C       0.54389   0.19368   0.19812 
C          C       0.55037   0.24807   0.17071 
N          N       0.36529   0.49473   0.08712 
N          N       0.51442   0.11899   0.34670 
N          N       0.53993   0.79543   0.39812 
C          C       0.08217   0.00963   0.06734 
C          C       0.05470   0.00507   0.12928 
C          C       0.04077   0.95902   0.10301 
C          C       0.05443   0.91626   0.02505 
C          C       0.08207   0.91820   0.48424 
C          C       0.09531   0.96555   0.00023 
C          C       0.04078   0.04457   0.22129 
C          C       0.01384   0.04118   0.27333 
C          C       0.99939   0.99828   0.23416 
C          C       0.01305   0.95564   0.15552 
C          C       0.99913   0.90956   0.12925 
C          C       0.01306   0.87000   0.03775 
C          C       0.03999   0.87332   0.48613 
C          C       0.97175   0.99622   0.27563 
C          C       0.95853   0.94885   0.25944 
C          C       0.97167   0.90491   0.19137 
C          C       0.95616   0.85424   0.19739 
C          C       0.93165   0.85427   0.15062 
C          C       0.91662   0.80704   0.16835 
C          C       0.92561   0.75876   0.23240 
C          C       0.94992   0.75875   0.28198 
C          C       0.96477   0.80585   0.26557 
N          N       0.85572   0.43039   0.36465 
C          C       0.84713   0.47944   0.32489 
N          N       0.82300   0.48384   0.28880 
C          C       0.80761   0.43988   0.29264 
N          N       0.81659   0.39103   0.33226 
C          C       0.84068   0.38608   0.36886 
C          C       0.85093   0.33295   0.40644 
C          C       0.86416   0.52718   0.31805 
C          C       0.78128   0.44501   0.25375 
C          C       0.77112   0.49541   0.22598 
C          C       0.74600   0.50028   0.19487 
C          C       0.73054   0.45498   0.19071 
C          C       0.74073   0.40454   0.21606 
C          C       0.76588   0.39964   0.24659 
C          C       0.83646   0.28624   0.39959 
C          C       0.84732   0.23653   0.41922 
C          C       0.87276   0.23262   0.44644 
C          C       0.88682   0.27902   0.46174 
C          C       0.87603   0.32861   0.44188 
C          C       0.88902   0.52180   0.35654 
C          C       0.90546   0.56628   0.34718 
C          C       0.89751   0.61722   0.29932 
C          C       0.87261   0.62302   0.26192 
C          C       0.85610   0.57836   0.27084 
C          C       0.88511   0.18079   0.44438 
C          C       0.70355   0.46101   0.16819 
C          C       0.91569   0.66306   0.28946 
N          N       0.90944   0.71133   0.24606 
N          N       0.68900   0.41973   0.16021 
C          C       0.95607   0.04373   0.32108 
C          C       0.96376   0.09354   0.22430 
C          C       0.94881   0.13769   0.25899 
C          C       0.92505   0.13276   0.38275 
C          C       0.91665   0.08307   0.47768 
C          C       0.93221   0.03901   0.44842 
N          N       0.91027   0.17940   0.40802 
H          H       0.07257   0.81584   0.14051 
H          H       0.09821   0.73838   0.07276 
H          H       0.15523   0.83580   0.18254 
H          H       0.12804   0.91289   0.23331 
H          H       0.27189   0.38302   0.01682 
H          H       0.31585   0.37477   0.07036 
H          H       0.32496   0.54553   0.03391 
H          H       0.28095   0.55397   0.48377 
H          H       0.23697   0.62613   0.37974 
H          H       0.21760   0.71287   0.35151 
H          H       0.14759   0.63740   0.26845 
H          H       0.16633   0.55078   0.30246 
H          H       0.15799   0.43118   0.36157 
H          H       0.12933   0.35356   0.37857 
H          H       0.18786   0.25245   0.03188 
H          H       0.21673   0.33039   0.01640 
H          H       0.18052   0.76958   0.30463 
H          H       0.35835   0.41392   0.08491 
H          H       0.11932   0.25951   0.43794 
H          H       0.12996   0.02380   0.15630 
H          H       0.15600   0.10672   0.12690 
H          H       0.09625   0.19124   0.42020 
H          H       0.07071   0.11036   0.45142 
H          H       0.47462   0.58945   0.46546 
H          H       0.46331   0.40025   0.15558 
H          H       0.49067   0.33332   0.21463 
H          H       0.59110   0.51406   0.08827 
H          H       0.56376   0.58099   0.02906 
H          H       0.57978   0.32483   0.27845 
H          H       0.61642   0.34210   0.03802 
H          H       0.66295   0.34654   0.03578 
H          H       0.65324   0.49120   0.29394 
H          H       0.60689   0.48388   0.31521 
H          H       0.55535   0.62339   0.27679 
H          H       0.56703   0.71826   0.23375 
H          H       0.49788   0.74786   0.12235 
H          H       0.48641   0.65260   0.17057 
H          H       0.43807   0.57212   0.20741 
H          H       0.39150   0.56781   0.21086 
H          H       0.40098   0.42329   0.45166 
H          H       0.44737   0.43053   0.42914 
H          H       0.49900   0.29107   0.46735 
H          H       0.48730   0.19622   0.01075 
H          H       0.55644   0.16650   0.12213 
H          H       0.56794   0.26173   0.07385 
H          H       0.52614   0.09220   0.27338 
H          H       0.49781   0.10419   0.44060 
H          H       0.55656   0.81023   0.30439 
H          H       0.52824   0.82220   0.47178 
H          H       0.11633   0.96814   0.46041 
H          H       0.05052   0.07846   0.25650 
H          H       0.00460   0.07254   0.34701 
H          H       0.00335   0.83597   0.00330 
H          H       0.04922   0.84177   0.41333 
H          H       0.93752   0.94607   0.29985 
H          H       0.92410   0.89070   0.09944 
H          H       0.89786   0.80787   0.13132 
H          H       0.95759   0.72323   0.33756 
H          H       0.98303   0.80426   0.30805 
H          H       0.78236   0.53115   0.23181 
H          H       0.73851   0.53956   0.17660 
H          H       0.72914   0.36883   0.21528 
H          H       0.77306   0.36019   0.26709 
H          H       0.81702   0.28801   0.37395 
H          H       0.83628   0.20124   0.40550 
H          H       0.90637   0.27711   0.48584 
H          H       0.88763   0.36361   0.45042 
H          H       0.89585   0.48312   0.39429 
H          H       0.92446   0.56080   0.37817 
H          H       0.86593   0.66190   0.22503 
H          H       0.83710   0.58390   0.23968 
H          H       0.87330   0.14478   0.45204 
H          H       0.69595   0.50053   0.16192 
H          H       0.93456   0.65488   0.31801 
H          H       0.98118   0.09836   0.11869 
H          H       0.95523   0.17563   0.18313 
H          H       0.89850   0.07860   0.07678 
H          H       0.92567   0.00141   0.02630 
C          C       0.09772   0.87063   0.93887 
C          C       0.08996   0.82072   0.53475 
C          C       0.10483   0.77649   0.99897 
C          C       0.12867   0.78148   0.87594 
C          C       0.13707   0.83124   0.78147 
C          C       0.12155   0.87532   0.81141 
N          N       0.19810   0.48380   0.89065 
C          C       0.20675   0.43482   0.93033 
N          N       0.23094   0.43032   0.96445 
C          C       0.24642   0.47435   0.95954 
N          N       0.23739   0.52312   0.92001 
C          C       0.21327   0.52817   0.88494 
C          C       0.20297   0.58128   0.84771 
C          C       0.18965   0.38709   0.93815 
C          C       0.27282   0.46916   0.99655 
C          C       0.28310   0.41881   0.52280 
C          C       0.30828   0.41401   0.55292 
C          C       0.32369   0.45938   0.55750 
C          C       0.31342   0.50977   0.53300 
C          C       0.28823   0.51458   0.50335 
C          C       0.21749   0.62797   0.85484 
C          C       0.20656   0.67769   0.83682 
C          C       0.18110   0.68170   0.81013 
C          C       0.16710   0.63538   0.79307 
C          C       0.17791   0.58575   0.81203 
C          C       0.16480   0.39252   0.89966 
C          C       0.14833   0.34809   0.90961 
C          C       0.15626   0.29719   0.95809 
C          C       0.18118   0.29134   0.99504 
C          C       0.19773   0.33595   0.98547 
C          C       0.16870   0.73353   0.81306 
C          C       0.35073   0.45340   0.57895 
C          C       0.13812   0.25139   0.96783 
N          N       0.14351   0.73487   0.85071 
C          C       0.09771   0.06030   0.56064 
C          C       0.12228   0.06026   0.60652 
C          C       0.13726   0.10752   0.58943 
C          C       0.12820   0.15577   0.52594 
C          C       0.10390   0.15577   0.97619 
C          C       0.08904   0.10869   0.99290 
N          N       0.14432   0.20321   0.51264 
C          C       0.47581   0.50681   0.55680 
C          C       0.49234   0.46549   0.59933 
C          C       0.51892   0.47769   0.59848 
C          C       0.52891   0.53093   0.55451 
C          C       0.51247   0.57180   0.50996 
C          C       0.48672   0.55834   0.50606 
C          C       0.48323   0.41254   0.64563 
C          C       0.49942   0.37267   0.68553 
C          C       0.52548   0.38342   0.68988 
C          C       0.53546   0.43667   0.64604 
C          C       0.56205   0.44885   0.64508 
C          C       0.57117   0.50180   0.59858 
C          C       0.55498   0.54166   0.55866 
C          C       0.54192   0.34255   0.73430 
C          C       0.56768   0.35598   0.73811 
C          C       0.57858   0.40750   0.68749 
C          C       0.52024   0.62978   0.98000 
C          C       0.44687   0.50043   0.57278 
C          C       0.60751   0.41392   0.67197 
C          C       0.53414   0.28460   0.76443 
C          C       0.62409   0.37497   0.59495 
C          C       0.65078   0.37771   0.59088 
C          C       0.66184   0.42027   0.65606 
C          C       0.64561   0.45943   0.73237 
C          C       0.61877   0.45533   0.74397 
C          C       0.54278   0.64967   0.85497 
C          C       0.54944   0.70400   0.82961 
C          C       0.53326   0.73980   0.92485 
C          C       0.51044   0.72069   0.54635 
C          C       0.50399   0.66629   0.57372 
C          C       0.43033   0.53931   0.65049 
C          C       0.40362   0.53667   0.65530 
C          C       0.39248   0.49413   0.59016 
C          C       0.40867   0.45503   0.51328 
C          C       0.43553   0.45903   0.50091 
C          C       0.51158   0.26476   0.88938 
C          C       0.50490   0.21044   0.91485 
C          C       0.52108   0.17462   0.81974 
C          C       0.54389   0.19368   0.69811 
C          C       0.55037   0.24807   0.67071 
N          N       0.36529   0.49473   0.58712 
N          N       0.51442   0.11899   0.84670 
N          N       0.53993   0.79543   0.89813 
C          C       0.08217   0.00963   0.56733 
C          C       0.05470   0.00507   0.62928 
C          C       0.04077   0.95902   0.60301 
C          C       0.05443   0.91626   0.52505 
C          C       0.08207   0.91820   0.98424 
C          C       0.09531   0.96555   0.50023 
C          C       0.04078   0.04457   0.72129 
C          C       0.01384   0.04118   0.77333 
C          C       0.99939   0.99828   0.73416 
C          C       0.01305   0.95564   0.65552 
C          C       0.99913   0.90956   0.62925 
C          C       0.01306   0.87000   0.53775 
C          C       0.03999   0.87332   0.98613 
C          C       0.97175   0.99622   0.77563 
C          C       0.95853   0.94885   0.75944 
C          C       0.97167   0.90491   0.69137 
C          C       0.95616   0.85424   0.69738 
C          C       0.93165   0.85427   0.65062 
C          C       0.91662   0.80704   0.66836 
C          C       0.92561   0.75876   0.73240 
C          C       0.94992   0.75875   0.78198 
C          C       0.96477   0.80585   0.76557 
N          N       0.85572   0.43039   0.86465 
C          C       0.84713   0.47944   0.82489 
N          N       0.82300   0.48384   0.78880 
C          C       0.80761   0.43988   0.79264 
N          N       0.81659   0.39103   0.83227 
C          C       0.84068   0.38608   0.86886 
C          C       0.85093   0.33295   0.90644 
C          C       0.86416   0.52718   0.81805 
C          C       0.78128   0.44501   0.75375 
C          C       0.77112   0.49541   0.72598 
C          C       0.74600   0.50028   0.69487 
C          C       0.73054   0.45498   0.69071 
C          C       0.74073   0.40454   0.71606 
C          C       0.76588   0.39964   0.74659 
C          C       0.83646   0.28624   0.89959 
C          C       0.84732   0.23653   0.91921 
C          C       0.87276   0.23262   0.94644 
C          C       0.88682   0.27902   0.96174 
C          C       0.87603   0.32861   0.94188 
C          C       0.88902   0.52180   0.85655 
C          C       0.90546   0.56628   0.84718 
C          C       0.89751   0.61722   0.79932 
C          C       0.87261   0.62302   0.76191 
C          C       0.85610   0.57836   0.77084 
C          C       0.88511   0.18079   0.94438 
C          C       0.70355   0.46101   0.66819 
C          C       0.91569   0.66306   0.78946 
N          N       0.90944   0.71133   0.74606 
N          N       0.68900   0.41973   0.66021 
C          C       0.95607   0.04373   0.82108 
C          C       0.96376   0.09354   0.72430 
C          C       0.94881   0.13769   0.75899 
C          C       0.92505   0.13276   0.88275 
C          C       0.91665   0.08307   0.97768 
C          C       0.93221   0.03901   0.94842 
N          N       0.91027   0.17940   0.90802 
H          H       0.07257   0.81584   0.64051 
H          H       0.09821   0.73838   0.57275 
H          H       0.15523   0.83580   0.68253 
H          H       0.12804   0.91289   0.73331 
H          H       0.27189   0.38302   0.51682 
H          H       0.31585   0.37477   0.57037 
H          H       0.32496   0.54553   0.53391 
H          H       0.28095   0.55397   0.98377 
H          H       0.23697   0.62613   0.87974 
H          H       0.21760   0.71287   0.85151 
H          H       0.14759   0.63740   0.76845 
H          H       0.16633   0.55078   0.80246 
H          H       0.15799   0.43118   0.86157 
H          H       0.12933   0.35356   0.87857 
H          H       0.18786   0.25245   0.53188 
H          H       0.21673   0.33039   0.51640 
H          H       0.18052   0.76958   0.80463 
H          H       0.35835   0.41392   0.58491 
H          H       0.11932   0.25951   0.93794 
H          H       0.12996   0.02380   0.65630 
H          H       0.15600   0.10672   0.62690 
H          H       0.09625   0.19124   0.92020 
H          H       0.07071   0.11036   0.95142 
H          H       0.47462   0.58945   0.96546 
H          H       0.46331   0.40025   0.65558 
H          H       0.49067   0.33332   0.71463 
H          H       0.59110   0.51406   0.58827 
H          H       0.56376   0.58099   0.52906 
H          H       0.57978   0.32483   0.77845 
H          H       0.61642   0.34210   0.53802 
H          H       0.66295   0.34654   0.53578 
H          H       0.65324   0.49120   0.79394 
H          H       0.60689   0.48388   0.81521 
H          H       0.55535   0.62339   0.77679 
H          H       0.56703   0.71826   0.73374 
H          H       0.49788   0.74786   0.62234 
H          H       0.48641   0.65260   0.67058 
H          H       0.43807   0.57212   0.70741 
H          H       0.39150   0.56781   0.71086 
H          H       0.40098   0.42329   0.95166 
H          H       0.44737   0.43053   0.92914 
H          H       0.49900   0.29107   0.96735 
H          H       0.48730   0.19622   0.51075 
H          H       0.55644   0.16650   0.62212 
H          H       0.56794   0.26173   0.57385 
H          H       0.52614   0.09220   0.77338 
H          H       0.49781   0.10419   0.94060 
H          H       0.55656   0.81023   0.80439 
H          H       0.52824   0.82220   0.97178 
H          H       0.11633   0.96814   0.96041 
H          H       0.05052   0.07846   0.75649 
H          H       0.00460   0.07254   0.84701 
H          H       0.00335   0.83597   0.50330 
H          H       0.04922   0.84177   0.91333 
H          H       0.93752   0.94607   0.79985 
H          H       0.92410   0.89070   0.59944 
H          H       0.89786   0.80787   0.63132 
H          H       0.95759   0.72323   0.83756 
H          H       0.98303   0.80426   0.80805 
H          H       0.78236   0.53115   0.73181 
H          H       0.73851   0.53956   0.67661 
H          H       0.72914   0.36883   0.71528 
H          H       0.77306   0.36019   0.76709 
H          H       0.81702   0.28801   0.87395 
H          H       0.83628   0.20124   0.90549 
H          H       0.90637   0.27711   0.98584 
H          H       0.88763   0.36361   0.95041 
H          H       0.89585   0.48312   0.89429 
H          H       0.92446   0.56080   0.87818 
H          H       0.86593   0.66190   0.72502 
H          H       0.83710   0.58390   0.73968 
H          H       0.87330   0.14478   0.95204 
H          H       0.69595   0.50053   0.66192 
H          H       0.93456   0.65488   0.81801 
H          H       0.98118   0.09836   0.61869 
H          H       0.95523   0.17563   0.68313 
H          H       0.89850   0.07860   0.57678 
H          H       0.92567   0.00141   0.52630 
