data_crystal

_cell_length_a    52.63120
_cell_length_b    25.61620
_cell_length_c    7.69880
_cell_angle_alpha 72.02620
_cell_angle_beta  94.42530
_cell_angle_gamma 89.86230

_space_group_name_Hall 'P 1'
_space_group_name_H-M_alt  'P 1'

loop_
_symmetry_equiv_pos_as_xyz
'x,y,z' 

loop_
_atom_site_label
_atom_site_type_symbol
_atom_site_fract_x
_atom_site_fract_y
_atom_site_fract_z
C          C       0.09851   0.89321   0.11099 
C          C       0.09252   0.84045   0.22066 
C          C       0.10795   0.79490   0.23249 
C          C       0.13025   0.80099   0.14148 
C          C       0.13700   0.85394   0.03762 
C          C       0.12129   0.89941   0.02315 
C          C       0.19097   0.49677   0.10840 
C          C       0.20010   0.44477   0.11199 
C          C       0.22649   0.43345   0.14130 
C          C       0.24348   0.47266   0.17014 
C          C       0.23398   0.52424   0.16632 
C          C       0.20771   0.53694   0.13425 
C          C       0.19776   0.59209   0.12677 
C          C       0.18212   0.40228   0.08678 
C          C       0.27118   0.45946   0.20462 
C          C       0.28021   0.40856   0.32513 
C          C       0.30629   0.39601   0.35366 
C          C       0.32336   0.43441   0.26023 
N          N       0.31430   0.48375   0.14454 
C          C       0.28898   0.49712   0.11582 
C          C       0.21148   0.63958   0.05020 
C          C       0.20163   0.69121   0.03956 
C          C       0.17787   0.69542   0.10471 
N          N       0.16483   0.64912   0.17888 
C          C       0.17404   0.59843   0.19156 
C          C       0.15929   0.41698   0.47351 
C          C       0.14251   0.37680   0.45351 
C          C       0.14853   0.32158   0.04688 
N          N       0.17062   0.30780   0.15640 
C          C       0.18727   0.34617   0.17851 
C          C       0.16669   0.74929   0.09054 
C          C       0.35082   0.42099   0.28358 
C          C       0.13111   0.27867   0.02750 
N          N       0.14454   0.75216   0.15135 
C          C       0.09403   0.08569   0.12294 
C          C       0.11731   0.08199   0.22922 
C          C       0.13115   0.12891   0.22241 
C          C       0.12212   0.18064   0.11016 
C          C       0.09906   0.18462   0.00074 
C          C       0.08542   0.13755   0.00562 
N          N       0.13700   0.22741   0.11290 
C          C       0.47454   0.42704   0.16010 
C          C       0.49256   0.46917   0.13848 
C          C       0.51753   0.46021   0.09410 
C          C       0.52485   0.40823   0.08167 
C          C       0.50769   0.36434   0.12471 
C          C       0.48271   0.37515   0.15787 
C          C       0.48659   0.51946   0.16511 
C          C       0.50389   0.56155   0.13419 
C          C       0.52792   0.55543   0.07426 
C          C       0.53525   0.50341   0.06202 
C          C       0.56024   0.49438   0.01834 
C          C       0.56623   0.44409   0.49195 
C          C       0.54890   0.40210   0.02197 
C          C       0.54513   0.59928   0.03143 
C          C       0.57013   0.58834   0.49926 
C          C       0.57829   0.53640   0.49745 
C          C       0.51522   0.30628   0.14471 
C          C       0.44686   0.43568   0.17773 
C          C       0.60601   0.52755   0.48220 
C          C       0.53764   0.65741   0.01101 
C          C       0.61961   0.48172   0.10321 
C          C       0.64594   0.47602   0.09978 
C          C       0.65949   0.51655   0.47954 
C          C       0.64600   0.56246   0.35706 
C          C       0.61959   0.56772   0.35881 
C          C       0.53815   0.28251   0.24459 
C          C       0.54472   0.22768   0.26911 
C          C       0.52807   0.19493   0.20032 
C          C       0.50488   0.21765   0.10544 
C          C       0.49853   0.27279   0.07748 
C          C       0.43310   0.48167   0.05890 
C          C       0.40690   0.48776   0.06763 
C          C       0.39362   0.44749   0.19107 
C          C       0.40724   0.40113   0.30978 
C          C       0.43351   0.39544   0.30263 
C          C       0.51475   0.68123   0.41060 
C          C       0.50829   0.73620   0.38478 
C          C       0.52495   0.76897   0.45346 
C          C       0.54807   0.74615   0.04927 
C          C       0.55435   0.69093   0.07805 
N          N       0.36650   0.45526   0.18855 
N          N       0.51839   0.82529   0.42618 
N          N       0.53471   0.13870   0.22667 
C          C       0.07984   0.03514   0.12367 
C          C       0.05296   0.03205   0.12614 
C          C       0.04046   0.98605   0.09774 
C          C       0.05495   0.94178   0.07780 
C          C       0.08197   0.94205   0.09857 
C          C       0.09379   0.98938   0.11557 
C          C       0.03828   0.07284   0.16183 
C          C       0.01188   0.07096   0.15465 
C          C       0.99888   0.02850   0.10935 
C          C       0.01336   0.98427   0.08923 
C          C       0.00087   0.93819   0.06115 
C          C       0.01556   0.89735   0.02594 
C          C       0.04196   0.89928   0.03292 
C          C       0.97185   0.02819   0.08886 
C          C       0.96004   0.98079   0.07192 
C          C       0.97399   0.93507   0.06375 
C          C       0.95980   0.88440   0.06547 
C          C       0.93646   0.88787   0.45997 
C          C       0.92256   0.84084   0.46889 
C          C       0.93155   0.78926   0.08290 
C          C       0.95471   0.78558   0.19107 
C          C       0.96842   0.83273   0.18390 
C          C       0.86268   0.47149   0.10645 
C          C       0.85335   0.52347   0.10145 
C          C       0.82696   0.53452   0.07003 
C          C       0.81016   0.49513   0.04027 
C          C       0.81989   0.44361   0.04512 
C          C       0.84617   0.43116   0.07916 
C          C       0.85638   0.37629   0.08520 
C          C       0.87116   0.56646   0.12509 
C          C       0.78246   0.50827   0.00136 
C          C       0.77359   0.55921   0.37996 
C          C       0.74748   0.57131   0.34518 
C          C       0.73023   0.53242   0.43324 
N          N       0.73913   0.48321   0.05039 
C          C       0.76448   0.47030   0.08543 
C          C       0.84264   0.32858   0.15822 
C          C       0.85259   0.27725   0.16622 
C          C       0.87640   0.27358   0.10111 
N          N       0.88949   0.32006   0.03056 
C          C       0.88023   0.37048   0.02124 
C          C       0.89393   0.55244   0.23923 
C          C       0.91068   0.59303   0.25616 
C          C       0.90472   0.64799   0.15848 
N          N       0.88263   0.66113   0.04863 
C          C       0.86597   0.62238   0.02994 
C          C       0.88753   0.21997   0.11104 
C          C       0.70268   0.54502   0.40255 
C          C       0.92222   0.69125   0.17378 
N          N       0.91653   0.74233   0.08383 
N          N       0.68677   0.50968   0.48977 
C          C       0.95529   0.07686   0.07795 
C          C       0.96127   0.12987   0.47017 
C          C       0.94594   0.17529   0.46170 
C          C       0.92368   0.16879   0.05341 
C          C       0.91686   0.11560   0.15421 
C          C       0.93252   0.07029   0.16599 
N          N       0.90951   0.21745   0.04778 
H          H       0.07589   0.83429   0.29810 
H          H       0.10260   0.75454   0.31444 
H          H       0.15381   0.86067   0.46249 
H          H       0.12684   0.93936   0.44026 
H          H       0.26709   0.37873   0.39811 
H          H       0.31307   0.35660   0.44688 
H          H       0.28272   0.53657   0.02051 
H          H       0.22951   0.63703   0.49401 
H          H       0.21225   0.72754   0.47846 
H          H       0.16285   0.56324   0.25359 
H          H       0.15448   0.45936   0.39763 
H          H       0.12510   0.38866   0.36468 
H          H       0.20417   0.33269   0.27142 
H          H       0.17704   0.78575   0.02780 
H          H       0.35734   0.38158   0.37692 
H          H       0.11346   0.29092   0.44273 
H          H       0.12483   0.04283   0.31874 
H          H       0.14891   0.12507   0.30685 
H          H       0.09156   0.22334   0.40841 
H          H       0.06820   0.14177   0.41582 
H          H       0.46927   0.34231   0.18275 
H          H       0.46865   0.52660   0.21401 
H          H       0.49832   0.59858   0.16188 
H          H       0.58424   0.43684   0.44425 
H          H       0.55451   0.36508   0.49433 
H          H       0.58360   0.62113   0.47469 
H          H       0.61004   0.45082   0.20410 
H          H       0.65598   0.44062   0.19583 
H          H       0.65544   0.59440   0.25907 
H          H       0.60979   0.60357   0.26400 
H          H       0.55089   0.30609   0.30620 
H          H       0.56258   0.21047   0.34475 
H          H       0.49181   0.19279   0.05154 
H          H       0.48055   0.28917   0.00262 
H          H       0.44247   0.51249   0.45632 
H          H       0.39672   0.52343   0.47402 
H          H       0.39803   0.36918   0.40925 
H          H       0.44336   0.35928   0.39515 
H          H       0.50200   0.65762   0.34930 
H          H       0.49051   0.75350   0.30813 
H          H       0.56114   0.77101   0.10323 
H          H       0.57230   0.67452   0.15338 
H          H       0.50124   0.84275   0.35407 
H          H       0.53060   0.84990   0.47839 
H          H       0.52252   0.11411   0.17414 
H          H       0.55191   0.12132   0.29818 
H          H       0.11437   0.99065   0.12296 
H          H       0.04702   0.10612   0.20032 
H          H       0.00187   0.10269   0.18960 
H          H       0.00683   0.86393   0.48833 
H          H       0.05199   0.86744   0.49877 
H          H       0.93947   0.97942   0.06475 
H          H       0.92891   0.92694   0.36994 
H          H       0.90475   0.84454   0.38516 
H          H       0.96223   0.74705   0.28436 
H          H       0.98566   0.82873   0.27333 
H          H       0.78682   0.58936   0.31053 
H          H       0.74082   0.61067   0.25091 
H          H       0.77055   0.43089   0.18175 
H          H       0.82451   0.33069   0.21341 
H          H       0.84196   0.24075   0.22503 
H          H       0.89143   0.40585   0.46170 
H          H       0.89874   0.51028   0.31780 
H          H       0.92807   0.58166   0.34554 
H          H       0.84907   0.63533   0.43672 
H          H       0.87718   0.18340   0.17251 
H          H       0.69623   0.58469   0.31061 
H          H       0.93978   0.67932   0.25992 
H          H       0.97784   0.13632   0.39209 
H          H       0.95134   0.21585   0.38179 
H          H       0.90003   0.10848   0.22901 
H          H       0.92695   0.03015   0.24723 
H          H       0.17071   0.50607   0.08554 
H          H       0.23402   0.39444   0.13777 
H          H       0.24706   0.55399   0.19301 
H          H       0.88294   0.46246   0.13020 
H          H       0.81929   0.57358   0.07166 
H          H       0.80700   0.41386   0.01647 
C          C       0.09851   0.89321   0.61099 
C          C       0.09252   0.84045   0.72066 
C          C       0.10795   0.79490   0.73249 
C          C       0.13025   0.80099   0.64148 
C          C       0.13700   0.85394   0.53762 
C          C       0.12129   0.89941   0.52315 
C          C       0.19097   0.49677   0.60840 
C          C       0.20010   0.44477   0.61199 
C          C       0.22649   0.43345   0.64130 
C          C       0.24348   0.47266   0.67014 
C          C       0.23398   0.52424   0.66632 
C          C       0.20771   0.53694   0.63425 
C          C       0.19776   0.59209   0.62677 
C          C       0.18212   0.40228   0.58678 
C          C       0.27118   0.45946   0.70462 
C          C       0.28021   0.40856   0.82513 
C          C       0.30629   0.39601   0.85366 
C          C       0.32336   0.43441   0.76023 
N          N       0.31430   0.48375   0.64454 
C          C       0.28898   0.49712   0.61582 
C          C       0.21148   0.63958   0.55020 
C          C       0.20163   0.69121   0.53956 
C          C       0.17787   0.69542   0.60471 
N          N       0.16483   0.64912   0.67889 
C          C       0.17404   0.59843   0.69156 
C          C       0.15929   0.41698   0.97351 
C          C       0.14251   0.37680   0.95351 
C          C       0.14853   0.32158   0.54688 
N          N       0.17062   0.30780   0.65639 
C          C       0.18727   0.34617   0.67851 
C          C       0.16669   0.74929   0.59054 
C          C       0.35082   0.42099   0.78358 
C          C       0.13111   0.27867   0.52750 
N          N       0.14454   0.75216   0.65135 
C          C       0.09403   0.08569   0.62294 
C          C       0.11731   0.08199   0.72922 
C          C       0.13115   0.12891   0.72241 
C          C       0.12212   0.18064   0.61016 
C          C       0.09906   0.18462   0.50074 
C          C       0.08542   0.13755   0.50562 
N          N       0.13700   0.22741   0.61290 
C          C       0.47454   0.42704   0.66010 
C          C       0.49256   0.46917   0.63848 
C          C       0.51753   0.46021   0.59410 
C          C       0.52485   0.40823   0.58167 
C          C       0.50769   0.36434   0.62471 
C          C       0.48271   0.37515   0.65787 
C          C       0.48659   0.51946   0.66511 
C          C       0.50389   0.56155   0.63419 
C          C       0.52792   0.55543   0.57426 
C          C       0.53525   0.50341   0.56202 
C          C       0.56024   0.49438   0.51834 
C          C       0.56623   0.44409   0.99195 
C          C       0.54890   0.40210   0.52197 
C          C       0.54513   0.59928   0.53143 
C          C       0.57013   0.58834   0.99926 
C          C       0.57829   0.53640   0.99745 
C          C       0.51522   0.30628   0.64471 
C          C       0.44686   0.43568   0.67774 
C          C       0.60601   0.52755   0.98220 
C          C       0.53764   0.65741   0.51101 
C          C       0.61961   0.48172   0.60321 
C          C       0.64594   0.47602   0.59978 
C          C       0.65949   0.51655   0.97954 
C          C       0.64600   0.56246   0.85706 
C          C       0.61959   0.56772   0.85881 
C          C       0.53815   0.28251   0.74459 
C          C       0.54472   0.22768   0.76911 
C          C       0.52807   0.19493   0.70032 
C          C       0.50488   0.21765   0.60544 
C          C       0.49853   0.27279   0.57748 
C          C       0.43310   0.48167   0.55890 
C          C       0.40690   0.48776   0.56763 
C          C       0.39362   0.44749   0.69107 
C          C       0.40724   0.40113   0.80978 
C          C       0.43351   0.39544   0.80263 
C          C       0.51475   0.68123   0.91060 
C          C       0.50829   0.73620   0.88478 
C          C       0.52495   0.76897   0.95346 
C          C       0.54807   0.74615   0.54927 
C          C       0.55435   0.69093   0.57805 
N          N       0.36650   0.45526   0.68854 
N          N       0.51839   0.82529   0.92618 
N          N       0.53471   0.13870   0.72667 
C          C       0.07984   0.03514   0.62367 
C          C       0.05296   0.03205   0.62614 
C          C       0.04046   0.98605   0.59774 
C          C       0.05495   0.94178   0.57780 
C          C       0.08197   0.94205   0.59857 
C          C       0.09379   0.98938   0.61557 
C          C       0.03828   0.07284   0.66182 
C          C       0.01188   0.07096   0.65465 
C          C       0.99888   0.02850   0.60935 
C          C       0.01336   0.98427   0.58923 
C          C       0.00087   0.93819   0.56115 
C          C       0.01556   0.89735   0.52594 
C          C       0.04196   0.89928   0.53292 
C          C       0.97185   0.02819   0.58886 
C          C       0.96004   0.98079   0.57192 
C          C       0.97399   0.93507   0.56375 
C          C       0.95980   0.88440   0.56547 
C          C       0.93646   0.88787   0.95997 
C          C       0.92256   0.84084   0.96889 
C          C       0.93155   0.78926   0.58290 
C          C       0.95471   0.78558   0.69107 
C          C       0.96842   0.83273   0.68390 
C          C       0.86268   0.47149   0.60645 
C          C       0.85335   0.52347   0.60145 
C          C       0.82696   0.53452   0.57003 
C          C       0.81016   0.49513   0.54027 
C          C       0.81989   0.44361   0.54512 
C          C       0.84617   0.43116   0.57916 
C          C       0.85638   0.37629   0.58520 
C          C       0.87116   0.56646   0.62509 
C          C       0.78246   0.50827   0.50136 
C          C       0.77359   0.55921   0.87997 
C          C       0.74748   0.57131   0.84518 
C          C       0.73023   0.53242   0.93324 
N          N       0.73913   0.48321   0.55040 
C          C       0.76448   0.47030   0.58543 
C          C       0.84264   0.32858   0.65823 
C          C       0.85259   0.27725   0.66622 
C          C       0.87640   0.27358   0.60111 
N          N       0.88949   0.32006   0.53056 
C          C       0.88023   0.37048   0.52124 
C          C       0.89393   0.55244   0.73923 
C          C       0.91068   0.59303   0.75616 
C          C       0.90472   0.64799   0.65848 
N          N       0.88263   0.66113   0.54863 
C          C       0.86597   0.62238   0.52994 
C          C       0.88753   0.21997   0.61104 
C          C       0.70268   0.54502   0.90255 
C          C       0.92222   0.69125   0.67379 
N          N       0.91653   0.74233   0.58383 
N          N       0.68677   0.50968   0.98977 
C          C       0.95529   0.07686   0.57795 
C          C       0.96127   0.12987   0.97017 
C          C       0.94594   0.17529   0.96170 
C          C       0.92368   0.16879   0.55341 
C          C       0.91686   0.11560   0.65421 
C          C       0.93252   0.07029   0.66599 
N          N       0.90951   0.21745   0.54778 
H          H       0.07589   0.83429   0.79809 
H          H       0.10260   0.75454   0.81444 
H          H       0.15381   0.86067   0.96249 
H          H       0.12684   0.93936   0.94025 
H          H       0.26709   0.37873   0.89811 
H          H       0.31307   0.35660   0.94688 
H          H       0.28272   0.53657   0.52051 
H          H       0.22951   0.63703   0.99401 
H          H       0.21225   0.72754   0.97846 
H          H       0.16285   0.56324   0.75359 
H          H       0.15448   0.45936   0.89763 
H          H       0.12510   0.38866   0.86468 
H          H       0.20417   0.33269   0.77142 
H          H       0.17704   0.78575   0.52780 
H          H       0.35734   0.38158   0.87692 
H          H       0.11346   0.29092   0.94273 
H          H       0.12483   0.04283   0.81875 
H          H       0.14891   0.12507   0.80685 
H          H       0.09156   0.22334   0.90841 
H          H       0.06820   0.14177   0.91582 
H          H       0.46927   0.34231   0.68275 
H          H       0.46865   0.52660   0.71401 
H          H       0.49832   0.59858   0.66188 
H          H       0.58424   0.43684   0.94425 
H          H       0.55451   0.36508   0.99433 
H          H       0.58360   0.62113   0.97469 
H          H       0.61004   0.45082   0.70410 
H          H       0.65598   0.44062   0.69583 
H          H       0.65544   0.59440   0.75907 
H          H       0.60979   0.60357   0.76400 
H          H       0.55089   0.30609   0.80620 
H          H       0.56258   0.21047   0.84475 
H          H       0.49181   0.19279   0.55154 
H          H       0.48055   0.28917   0.50262 
H          H       0.44247   0.51249   0.95632 
H          H       0.39672   0.52343   0.97402 
H          H       0.39803   0.36918   0.90925 
H          H       0.44336   0.35928   0.89515 
H          H       0.50200   0.65762   0.84930 
H          H       0.49051   0.75350   0.80813 
H          H       0.56114   0.77101   0.60323 
H          H       0.57230   0.67452   0.65338 
H          H       0.50124   0.84275   0.85407 
H          H       0.53060   0.84990   0.97839 
H          H       0.52252   0.11411   0.67415 
H          H       0.55191   0.12132   0.79818 
H          H       0.11437   0.99065   0.62296 
H          H       0.04702   0.10612   0.70032 
H          H       0.00187   0.10269   0.68960 
H          H       0.00683   0.86393   0.98833 
H          H       0.05199   0.86744   0.99877 
H          H       0.93947   0.97942   0.56475 
H          H       0.92891   0.92694   0.86994 
H          H       0.90475   0.84454   0.88516 
H          H       0.96223   0.74705   0.78436 
H          H       0.98566   0.82873   0.77333 
H          H       0.78682   0.58936   0.81053 
H          H       0.74082   0.61067   0.75091 
H          H       0.77055   0.43089   0.68175 
H          H       0.82451   0.33069   0.71341 
H          H       0.84196   0.24075   0.72503 
H          H       0.89143   0.40585   0.96170 
H          H       0.89874   0.51028   0.81780 
H          H       0.92807   0.58166   0.84554 
H          H       0.84907   0.63533   0.93672 
H          H       0.87718   0.18340   0.67252 
H          H       0.69623   0.58469   0.81061 
H          H       0.93978   0.67932   0.75993 
H          H       0.97784   0.13632   0.89209 
H          H       0.95134   0.21585   0.88179 
H          H       0.90003   0.10848   0.72901 
H          H       0.92695   0.03015   0.74723 
H          H       0.17071   0.50607   0.58554 
H          H       0.23402   0.39444   0.63777 
H          H       0.24706   0.55399   0.69301 
H          H       0.88294   0.46246   0.63020 
H          H       0.81929   0.57358   0.57166 
H          H       0.80700   0.41386   0.51647 
