data_crystal

_cell_length_a    45.75410
_cell_length_b    25.67750
_cell_length_c    7.49000
_cell_angle_alpha 68.79920
_cell_angle_beta  92.22490
_cell_angle_gamma 90.18040

_space_group_name_Hall 'P 1'
_space_group_name_H-M_alt  'P 1'

loop_
_symmetry_equiv_pos_as_xyz
'x,y,z' 

loop_
_atom_site_label
_atom_site_type_symbol
_atom_site_fract_x
_atom_site_fract_y
_atom_site_fract_z
C          C       0.10602   0.88284   0.13541 
C          C       0.09713   0.82932   0.25370 
C          C       0.11364   0.78186   0.27187 
C          C       0.14019   0.78679   0.18122 
C          C       0.14987   0.84023   0.06888 
C          C       0.13297   0.88753   0.04646 
N          N       0.21538   0.48747   0.13330 
C          C       0.22682   0.43968   0.12535 
N          N       0.25632   0.43283   0.13416 
C          C       0.27434   0.47340   0.14856 
N          N       0.26255   0.52111   0.15534 
C          C       0.23307   0.52829   0.14912 
C          C       0.22029   0.58015   0.15804 
C          C       0.20735   0.39589   0.10460 
C          C       0.30648   0.46593   0.15393 
C          C       0.31880   0.41335   0.18198 
C          C       0.34910   0.40638   0.18493 
C          C       0.36767   0.45189   0.15741 
C          C       0.35546   0.50448   0.12976 
C          C       0.32517   0.51136   0.12904 
C          C       0.23805   0.62614   0.14396 
C          C       0.22577   0.67556   0.14714 
C          C       0.19561   0.67979   0.16650 
C          C       0.17787   0.63361   0.18351 
C          C       0.19009   0.58434   0.17921 
C          C       0.17728   0.40674   0.06111 
C          C       0.15887   0.36539   0.04202 
C          C       0.17009   0.31242   0.06627 
C          C       0.20015   0.30151   0.10879 
C          C       0.21860   0.34293   0.12694 
C          C       0.18296   0.73298   0.16270 
C          C       0.39956   0.44370   0.15800 
C          C       0.15007   0.26906   0.04970 
N          N       0.15546   0.73668   0.19430 
C          C       0.10673   0.07893   0.11043 
C          C       0.13372   0.07206   0.21398 
C          C       0.15099   0.11803   0.20176 
C          C       0.14155   0.17204   0.08944 
C          C       0.11512   0.17937   0.48038 
C          C       0.09829   0.13318   0.48777 
N          N       0.15924   0.21805   0.09206 
C          C       0.50973   0.48346   0.08173 
C          C       0.54222   0.48377   0.07726 
C          C       0.55802   0.43451   0.10252 
C          C       0.58855   0.43474   0.10049 
C          C       0.60402   0.48401   0.07262 
C          C       0.58830   0.53370   0.04408 
C          C       0.55778   0.53336   0.04793 
C          C       0.49304   0.52983   0.46259 
C          C       0.46257   0.52992   0.46951 
C          C       0.44807   0.48357   0.09270 
C          C       0.46460   0.43711   0.21289 
C          C       0.49510   0.43714   0.20723 
N          N       0.41679   0.48626   0.09747 
C          C       0.08870   0.02919   0.11976 
C          C       0.05769   0.02892   0.12220 
C          C       0.04202   0.98339   0.10253 
C          C       0.05738   0.93664   0.09285 
C          C       0.08836   0.93398   0.11465 
C          C       0.10328   0.98103   0.12153 
C          C       0.04186   0.07192   0.14996 
C          C       0.01152   0.07318   0.13982 
C          C       0.99546   0.03136   0.10225 
C          C       0.01083   0.98461   0.09256 
C          C       0.99516   0.93908   0.07286 
C          C       0.01098   0.89608   0.04507 
C          C       0.04132   0.89486   0.05511 
C          C       0.96447   0.03398   0.08061 
C          C       0.94957   0.98691   0.07369 
C          C       0.96415   0.93876   0.07547 
C          C       0.94613   0.88892   0.08544 
C          C       0.91913   0.89559   0.48235 
C          C       0.90187   0.84950   0.49571 
C          C       0.91135   0.79556   0.10874 
C          C       0.93781   0.78844   0.21724 
C          C       0.95461   0.83477   0.20862 
N          N       0.83758   0.47959   0.06995 
C          C       0.82619   0.52692   0.08185 
N          N       0.79669   0.53320   0.07856 
C          C       0.77861   0.49260   0.06505 
N          N       0.79036   0.44537   0.05403 
C          C       0.81983   0.43869   0.05532 
C          C       0.83255   0.38716   0.04336 
C          C       0.84571   0.57088   0.10077 
C          C       0.74647   0.49955   0.06500 
C          C       0.73432   0.54934   0.06893 
C          C       0.70407   0.55576   0.07129 
C          C       0.68529   0.51270   0.06950 
C          C       0.69730   0.46295   0.06463 
C          C       0.72759   0.45647   0.06236 
C          C       0.81483   0.34103   0.05854 
C          C       0.82708   0.29180   0.05368 
C          C       0.85718   0.28789   0.03131 
C          C       0.87487   0.33425   0.01270 
C          C       0.86267   0.38334   0.01882 
C          C       0.87590   0.56066   0.13850 
C          C       0.89431   0.60221   0.15609 
C          C       0.88298   0.65480   0.13540 
C          C       0.85279   0.66507   0.09871 
C          C       0.83434   0.62343   0.08230 
C          C       0.86983   0.23478   0.03424 
C          C       0.65344   0.52058   0.07357 
C          C       0.90300   0.69848   0.14905 
N          N       0.89367   0.74934   0.10797 
N          N       0.63540   0.48169   0.07036 
C          C       0.94679   0.08506   0.06015 
C          C       0.95567   0.13860   0.44205 
C          C       0.93915   0.18602   0.42421 
C          C       0.91260   0.18104   0.01491 
C          C       0.90293   0.12758   0.12704 
C          C       0.91983   0.08031   0.14909 
N          N       0.89732   0.23112   0.00221 
H          H       0.07737   0.82397   0.33257 
H          H       0.10590   0.74101   0.35918 
H          H       0.16978   0.84570   0.49140 
H          H       0.14085   0.92772   0.45578 
H          H       0.30504   0.37745   0.20203 
H          H       0.35803   0.36542   0.20681 
H          H       0.36929   0.54031   0.10919 
H          H       0.31639   0.55243   0.10679 
H          H       0.26139   0.62431   0.12754 
H          H       0.23985   0.71065   0.13372 
H          H       0.15451   0.63567   0.19845 
H          H       0.17581   0.54955   0.19203 
H          H       0.16791   0.44721   0.04152 
H          H       0.13576   0.37471   0.00918 
H          H       0.20943   0.26103   0.12786 
H          H       0.24164   0.33319   0.16036 
H          H       0.19707   0.76879   0.13328 
H          H       0.40818   0.40153   0.20225 
H          H       0.12724   0.28009   0.01167 
H          H       0.14143   0.03120   0.30705 
H          H       0.17141   0.11167   0.28541 
H          H       0.10779   0.22031   0.38526 
H          H       0.07871   0.14006   0.39628 
H          H       0.54683   0.39575   0.12214 
H          H       0.60025   0.39630   0.12038 
H          H       0.59917   0.57300   0.01743 
H          H       0.54639   0.57192   0.03048 
H          H       0.50343   0.56582   0.36173 
H          H       0.45014   0.56605   0.37672 
H          H       0.45422   0.40150   0.31542 
H          H       0.50726   0.40147   0.30498 
H          H       0.12690   0.98018   0.12810 
H          H       0.05267   0.10443   0.18579 
H          H       0.00088   0.10666   0.16800 
H          H       0.00018   0.86351   0.00954 
H          H       0.05197   0.86138   0.02709 
H          H       0.92595   0.98778   0.06710 
H          H       0.91134   0.93638   0.38903 
H          H       0.88142   0.85574   0.41262 
H          H       0.94519   0.74754   0.31273 
H          H       0.97422   0.82810   0.29948 
H          H       0.74818   0.58336   0.07151 
H          H       0.69533   0.59441   0.07566 
H          H       0.68333   0.42905   0.06234 
H          H       0.73618   0.41767   0.05858 
H          H       0.79154   0.34257   0.07733 
H          H       0.81304   0.25657   0.06839 
H          H       0.89818   0.33244   0.49556 
H          H       0.87692   0.41822   0.00522 
H          H       0.88538   0.52055   0.15441 
H          H       0.91750   0.59334   0.18427 
H          H       0.84338   0.70520   0.08311 
H          H       0.81118   0.63264   0.05370 
H          H       0.85574   0.19895   0.06382 
H          H       0.64561   0.55916   0.08293 
H          H       0.92597   0.68800   0.18307 
H          H       0.97542   0.14402   0.36304 
H          H       0.94686   0.22689   0.33697 
H          H       0.88302   0.12209   0.20454 
H          H       0.91193   0.04009   0.23947 
C          C       0.10602   0.88284   0.63542 
C          C       0.09713   0.82932   0.75370 
C          C       0.11364   0.78186   0.77187 
C          C       0.14019   0.78679   0.68122 
C          C       0.14987   0.84023   0.56888 
C          C       0.13297   0.88753   0.54646 
N          N       0.21538   0.48747   0.63330 
C          C       0.22682   0.43968   0.62535 
N          N       0.25632   0.43283   0.63416 
C          C       0.27434   0.47340   0.64856 
N          N       0.26255   0.52111   0.65534 
C          C       0.23307   0.52829   0.64912 
C          C       0.22029   0.58015   0.65804 
C          C       0.20735   0.39589   0.60460 
C          C       0.30648   0.46593   0.65393 
C          C       0.31880   0.41335   0.68198 
C          C       0.34910   0.40638   0.68493 
C          C       0.36767   0.45189   0.65741 
C          C       0.35546   0.50448   0.62976 
C          C       0.32517   0.51136   0.62904 
C          C       0.23805   0.62614   0.64396 
C          C       0.22577   0.67556   0.64714 
C          C       0.19561   0.67979   0.66650 
C          C       0.17787   0.63361   0.68351 
C          C       0.19009   0.58434   0.67921 
C          C       0.17728   0.40674   0.56111 
C          C       0.15887   0.36539   0.54202 
C          C       0.17009   0.31242   0.56627 
C          C       0.20015   0.30151   0.60879 
C          C       0.21860   0.34293   0.62694 
C          C       0.18296   0.73298   0.66271 
C          C       0.39956   0.44370   0.65800 
C          C       0.15007   0.26906   0.54970 
N          N       0.15546   0.73668   0.69429 
C          C       0.10673   0.07893   0.61042 
C          C       0.13372   0.07206   0.71398 
C          C       0.15099   0.11803   0.70176 
C          C       0.14155   0.17204   0.58944 
C          C       0.11512   0.17937   0.98038 
C          C       0.09829   0.13318   0.98777 
N          N       0.15924   0.21805   0.59206 
C          C       0.50973   0.48346   0.58173 
C          C       0.54222   0.48377   0.57726 
C          C       0.55802   0.43451   0.60252 
C          C       0.58855   0.43474   0.60049 
C          C       0.60402   0.48401   0.57261 
C          C       0.58830   0.53370   0.54408 
C          C       0.55778   0.53336   0.54793 
C          C       0.49304   0.52983   0.96259 
C          C       0.46257   0.52992   0.96950 
C          C       0.44807   0.48357   0.59270 
C          C       0.46460   0.43711   0.71289 
C          C       0.49510   0.43714   0.70723 
N          N       0.41679   0.48626   0.59748 
C          C       0.08870   0.02919   0.61976 
C          C       0.05769   0.02892   0.62220 
C          C       0.04202   0.98339   0.60252 
C          C       0.05738   0.93664   0.59285 
C          C       0.08836   0.93398   0.61465 
C          C       0.10328   0.98103   0.62152 
C          C       0.04186   0.07192   0.64996 
C          C       0.01152   0.07318   0.63983 
C          C       0.99546   0.03136   0.60225 
C          C       0.01083   0.98461   0.59256 
C          C       0.99516   0.93908   0.57286 
C          C       0.01098   0.89608   0.54507 
C          C       0.04132   0.89486   0.55511 
C          C       0.96447   0.03398   0.58062 
C          C       0.94957   0.98691   0.57369 
C          C       0.96415   0.93876   0.57547 
C          C       0.94613   0.88892   0.58544 
C          C       0.91913   0.89559   0.98235 
C          C       0.90187   0.84950   0.99571 
C          C       0.91135   0.79556   0.60874 
C          C       0.93781   0.78844   0.71724 
C          C       0.95461   0.83477   0.70862 
N          N       0.83758   0.47959   0.56995 
C          C       0.82619   0.52692   0.58185 
N          N       0.79669   0.53320   0.57856 
C          C       0.77861   0.49260   0.56505 
N          N       0.79036   0.44537   0.55403 
C          C       0.81983   0.43869   0.55532 
C          C       0.83255   0.38716   0.54336 
C          C       0.84571   0.57088   0.60077 
C          C       0.74647   0.49955   0.56500 
C          C       0.73432   0.54934   0.56893 
C          C       0.70407   0.55576   0.57129 
C          C       0.68529   0.51270   0.56950 
C          C       0.69730   0.46295   0.56463 
C          C       0.72759   0.45647   0.56236 
C          C       0.81483   0.34103   0.55854 
C          C       0.82708   0.29180   0.55368 
C          C       0.85718   0.28789   0.53131 
C          C       0.87487   0.33425   0.51270 
C          C       0.86267   0.38334   0.51882 
C          C       0.87590   0.56066   0.63850 
C          C       0.89431   0.60221   0.65609 
C          C       0.88298   0.65480   0.63540 
C          C       0.85279   0.66507   0.59871 
C          C       0.83434   0.62343   0.58230 
C          C       0.86983   0.23478   0.53424 
C          C       0.65344   0.52058   0.57357 
C          C       0.90300   0.69848   0.64905 
N          N       0.89367   0.74934   0.60797 
N          N       0.63540   0.48169   0.57036 
C          C       0.94679   0.08506   0.56015 
C          C       0.95567   0.13860   0.94205 
C          C       0.93915   0.18602   0.92421 
C          C       0.91260   0.18104   0.51491 
C          C       0.90293   0.12758   0.62704 
C          C       0.91983   0.08031   0.64909 
N          N       0.89732   0.23112   0.50221 
H          H       0.07737   0.82397   0.83257 
H          H       0.10590   0.74101   0.85918 
H          H       0.16978   0.84570   0.99140 
H          H       0.14085   0.92772   0.95578 
H          H       0.30504   0.37745   0.70203 
H          H       0.35803   0.36542   0.70681 
H          H       0.36929   0.54031   0.60919 
H          H       0.31639   0.55243   0.60679 
H          H       0.26139   0.62431   0.62754 
H          H       0.23985   0.71065   0.63372 
H          H       0.15451   0.63567   0.69845 
H          H       0.17581   0.54955   0.69203 
H          H       0.16791   0.44721   0.54152 
H          H       0.13576   0.37471   0.50918 
H          H       0.20943   0.26103   0.62786 
H          H       0.24164   0.33319   0.66036 
H          H       0.19707   0.76879   0.63328 
H          H       0.40818   0.40153   0.70226 
H          H       0.12724   0.28009   0.51167 
H          H       0.14143   0.03120   0.80705 
H          H       0.17141   0.11167   0.78541 
H          H       0.10779   0.22031   0.88526 
H          H       0.07871   0.14006   0.89628 
H          H       0.54683   0.39575   0.62214 
H          H       0.60025   0.39630   0.62038 
H          H       0.59917   0.57300   0.51743 
H          H       0.54639   0.57192   0.53048 
H          H       0.50343   0.56582   0.86173 
H          H       0.45014   0.56605   0.87672 
H          H       0.45422   0.40150   0.81542 
H          H       0.50726   0.40147   0.80498 
H          H       0.12690   0.98018   0.62810 
H          H       0.05267   0.10443   0.68579 
H          H       0.00088   0.10666   0.66801 
H          H       0.00018   0.86351   0.50954 
H          H       0.05197   0.86138   0.52709 
H          H       0.92595   0.98778   0.56710 
H          H       0.91134   0.93638   0.88903 
H          H       0.88142   0.85574   0.91261 
H          H       0.94519   0.74754   0.81273 
H          H       0.97422   0.82810   0.79948 
H          H       0.74818   0.58336   0.57151 
H          H       0.69533   0.59441   0.57566 
H          H       0.68333   0.42905   0.56234 
H          H       0.73618   0.41767   0.55858 
H          H       0.79154   0.34257   0.57733 
H          H       0.81304   0.25657   0.56839 
H          H       0.89818   0.33244   0.99557 
H          H       0.87692   0.41822   0.50522 
H          H       0.88538   0.52055   0.65441 
H          H       0.91750   0.59334   0.68427 
H          H       0.84338   0.70520   0.58311 
H          H       0.81118   0.63264   0.55370 
H          H       0.85574   0.19895   0.56382 
H          H       0.64561   0.55916   0.58293 
H          H       0.92597   0.68800   0.68307 
H          H       0.97542   0.14402   0.86303 
H          H       0.94686   0.22689   0.83696 
H          H       0.88302   0.12209   0.70454 
H          H       0.91193   0.04009   0.73947 
