data_Py-Azine_COF
_audit_creation_date              0000-00-00
_audit_creation_method            'LanYouShi'
_symmetry_space_group_name_H-M    'P1'
_cell_length_a                    29.9683990
_cell_length_b                    27.9195004
_cell_length_c                    3.9170001
_cell_angle_alpha                 90.0000000
_cell_angle_beta                  90.0000000
_cell_angle_gamma                 90.0000000
loop_
_atom_site_label
_atom_site_type_symbol
_atom_site_fract_x
_atom_site_fract_y
_atom_site_fract_z
_atom_site_U_iso_or_equiv
_atom_site_adp_type
_atom_site_occupancy
        C1          C  0.0410215  0.5537909  0.0000000    0.00000       Uiso       1.00
        C2          C  0.0789378  0.4752564  0.0000000    0.00000       Uiso       1.00
        C3          C  0.0437287  0.3942775  0.0000000    0.00000       Uiso       1.00
        C4          C  0.0820589  0.3601907  0.0000000    0.00000       Uiso       1.00
        C5          C  0.0769434  0.3085052  0.0000000    0.00000       Uiso       1.00
        C6          C  0.1114161  0.2741597  0.0000000    0.00000       Uiso       1.00
        C7          C  0.1562961  0.2880886  0.0000000    0.00000       Uiso       1.00
        C8          C  0.1644221  0.3375020  0.0000000    0.00000       Uiso       1.00
        C9          C  0.1290461  0.3708490  0.0000000    0.00000       Uiso       1.00
       C10          C  0.1906918  0.2536805  0.0000000    0.00000       Uiso       1.00
        H1          H  0.1092989  0.4624404  0.0000000    0.00000       Uiso       1.00
        H2          H  0.0472769  0.2913339  0.0000000    0.00000       Uiso       1.00
        H3          H  0.1033208  0.2384653  0.0000000    0.00000       Uiso       1.00
        H4          H  0.1966985  0.3497200  0.0000000    0.00000       Uiso       1.00
        H5          H  0.1420570  0.4033397  0.0000000    0.00000       Uiso       1.00
        H6          H  0.1826278  0.2180361  0.0000000    0.00000       Uiso       1.00
        C1          C  0.5410215  0.0537911  0.0000000    0.00000       Uiso       1.00
        C1          C  0.9589785  0.4462087  0.0000000    0.00000       Uiso       1.00
        C2          C  0.9210622  0.5247432  0.0000000    0.00000       Uiso       1.00
        C3          C  0.9562714  0.6057221  0.0000000    0.00000       Uiso       1.00
        C4          C  0.9179411  0.6398090  0.0000000    0.00000       Uiso       1.00
        C5          C  0.9230566  0.6914945  0.0000000    0.00000       Uiso       1.00
        C6          C  0.8885838  0.7258400  0.0000000    0.00000       Uiso       1.00
        C7          C  0.8437039  0.7119110  0.0000000    0.00000       Uiso       1.00
        C8          C  0.8355779  0.6624976  0.0000000    0.00000       Uiso       1.00
        C9          C  0.8709539  0.6291506  0.0000000    0.00000       Uiso       1.00
       C10          C  0.8093082  0.7463192  0.0000000    0.00000       Uiso       1.00
        H1          H  0.8907011  0.5375593  0.0000000    0.00000       Uiso       1.00
        H2          H  0.9527230  0.7086657  0.0000000    0.00000       Uiso       1.00
        H3          H  0.8966792  0.7615344  0.0000000    0.00000       Uiso       1.00
        H4          H  0.8033015  0.6502797  0.0000000    0.00000       Uiso       1.00
        H5          H  0.8579430  0.5966600  0.0000000    0.00000       Uiso       1.00
        H6          H  0.8173722  0.7819635  0.0000000    0.00000       Uiso       1.00
        C1          C  0.4589785  0.9462085  0.0000000    0.00000       Uiso       1.00
        C1          C  0.9589785  0.5537909  0.0000000    0.00000       Uiso       1.00
        C2          C  0.9210622  0.4752564  0.0000000    0.00000       Uiso       1.00
        C3          C  0.9562714  0.3942775  0.0000000    0.00000       Uiso       1.00
        C4          C  0.9179411  0.3601907  0.0000000    0.00000       Uiso       1.00
        C5          C  0.9230566  0.3085052  0.0000000    0.00000       Uiso       1.00
        C6          C  0.8885838  0.2741597  0.0000000    0.00000       Uiso       1.00
        C7          C  0.8437039  0.2880886  0.0000000    0.00000       Uiso       1.00
        C8          C  0.8355779  0.3375020  0.0000000    0.00000       Uiso       1.00
        C9          C  0.8709539  0.3708490  0.0000000    0.00000       Uiso       1.00
       C10          C  0.8093082  0.2536805  0.0000000    0.00000       Uiso       1.00
        H1          H  0.8907011  0.4624404  0.0000000    0.00000       Uiso       1.00
        H2          H  0.9527230  0.2913339  0.0000000    0.00000       Uiso       1.00
        H3          H  0.8966792  0.2384653  0.0000000    0.00000       Uiso       1.00
        H4          H  0.8033015  0.3497200  0.0000000    0.00000       Uiso       1.00
        H5          H  0.8579430  0.4033397  0.0000000    0.00000       Uiso       1.00
        H6          H  0.8173722  0.2180361  0.0000000    0.00000       Uiso       1.00
        C1          C  0.4589785  0.0537911  0.0000000    0.00000       Uiso       1.00
        C1          C  0.0410215  0.4462087  0.0000000    0.00000       Uiso       1.00
        C2          C  0.0789378  0.5247432  0.0000000    0.00000       Uiso       1.00
        C3          C  0.0437287  0.6057221  0.0000000    0.00000       Uiso       1.00
        C4          C  0.0820589  0.6398090  0.0000000    0.00000       Uiso       1.00
        C5          C  0.0769434  0.6914945  0.0000000    0.00000       Uiso       1.00
        C6          C  0.1114161  0.7258400  0.0000000    0.00000       Uiso       1.00
        C7          C  0.1562961  0.7119110  0.0000000    0.00000       Uiso       1.00
        C8          C  0.1644221  0.6624976  0.0000000    0.00000       Uiso       1.00
        C9          C  0.1290461  0.6291506  0.0000000    0.00000       Uiso       1.00
       C10          C  0.1906918  0.7463192  0.0000000    0.00000       Uiso       1.00
        H1          H  0.1092989  0.5375593  0.0000000    0.00000       Uiso       1.00
        H2          H  0.0472769  0.7086657  0.0000000    0.00000       Uiso       1.00
        H3          H  0.1033208  0.7615344  0.0000000    0.00000       Uiso       1.00
        H4          H  0.1966985  0.6502797  0.0000000    0.00000       Uiso       1.00
        H5          H  0.1420570  0.5966600  0.0000000    0.00000       Uiso       1.00
        H6          H  0.1826278  0.7819635  0.0000000    0.00000       Uiso       1.00
        C1          C  0.5410215  0.9462085  0.0000000    0.00000       Uiso       1.00
        C1          C  0.5789378  0.9752563  0.0000000    0.00000       Uiso       1.00
        C2          C  0.5437286  0.8942774  0.0000000    0.00000       Uiso       1.00
        C3          C  0.5820589  0.8601906  0.0000000    0.00000       Uiso       1.00
        C4          C  0.5769434  0.8085050  0.0000000    0.00000       Uiso       1.00
        C5          C  0.6114161  0.7741596  0.0000000    0.00000       Uiso       1.00
        C6          C  0.6562961  0.7880885  0.0000000    0.00000       Uiso       1.00
        C7          C  0.6644221  0.8375018  0.0000000    0.00000       Uiso       1.00
        C8          C  0.6290461  0.8708489  0.0000000    0.00000       Uiso       1.00
        C9          C  0.6906918  0.7536803  0.0000000    0.00000       Uiso       1.00
        H1          H  0.6092989  0.9624402  0.0000000    0.00000       Uiso       1.00
        H2          H  0.5472770  0.7913337  0.0000000    0.00000       Uiso       1.00
        H3          H  0.6033208  0.7384651  0.0000000    0.00000       Uiso       1.00
        H4          H  0.6966985  0.8497198  0.0000000    0.00000       Uiso       1.00
        H5          H  0.6420570  0.9033395  0.0000000    0.00000       Uiso       1.00
        H6          H  0.6826278  0.7180359  0.0000000    0.00000       Uiso       1.00
        C1          C  0.4210622  0.0247434  0.0000000    0.00000       Uiso       1.00
        C2          C  0.4562713  0.1057223  0.0000000    0.00000       Uiso       1.00
        C3          C  0.4179411  0.1398091  0.0000000    0.00000       Uiso       1.00
        C4          C  0.4230566  0.1914946  0.0000000    0.00000       Uiso       1.00
        C5          C  0.3885839  0.2258401  0.0000000    0.00000       Uiso       1.00
        C6          C  0.3437039  0.2119112  0.0000000    0.00000       Uiso       1.00
        C7          C  0.3355779  0.1624978  0.0000000    0.00000       Uiso       1.00
        C8          C  0.3709539  0.1291508  0.0000000    0.00000       Uiso       1.00
        C9          C  0.3093081  0.2463194  0.0000000    0.00000       Uiso       1.00
        H1          H  0.3907011  0.0375594  0.0000000    0.00000       Uiso       1.00
        H2          H  0.4527230  0.2086659  0.0000000    0.00000       Uiso       1.00
        H3          H  0.3966792  0.2615346  0.0000000    0.00000       Uiso       1.00
        H4          H  0.3033014  0.1502799  0.0000000    0.00000       Uiso       1.00
        H5          H  0.3579430  0.0966602  0.0000000    0.00000       Uiso       1.00
        H6          H  0.3173722  0.2819637  0.0000000    0.00000       Uiso       1.00
        C1          C  0.4210622  0.9752563  0.0000000    0.00000       Uiso       1.00
        C2          C  0.4562713  0.8942774  0.0000000    0.00000       Uiso       1.00
        C3          C  0.4179411  0.8601906  0.0000000    0.00000       Uiso       1.00
        C4          C  0.4230566  0.8085050  0.0000000    0.00000       Uiso       1.00
        C5          C  0.3885839  0.7741596  0.0000000    0.00000       Uiso       1.00
        C6          C  0.3437039  0.7880885  0.0000000    0.00000       Uiso       1.00
        C7          C  0.3355779  0.8375018  0.0000000    0.00000       Uiso       1.00
        C8          C  0.3709539  0.8708489  0.0000000    0.00000       Uiso       1.00
        C9          C  0.3093081  0.7536803  0.0000000    0.00000       Uiso       1.00
        H1          H  0.3907011  0.9624402  0.0000000    0.00000       Uiso       1.00
        H2          H  0.4527230  0.7913337  0.0000000    0.00000       Uiso       1.00
        H3          H  0.3966792  0.7384651  0.0000000    0.00000       Uiso       1.00
        H4          H  0.3033014  0.8497198  0.0000000    0.00000       Uiso       1.00
        H5          H  0.3579430  0.9033395  0.0000000    0.00000       Uiso       1.00
        H6          H  0.3173722  0.7180359  0.0000000    0.00000       Uiso       1.00
        C1          C  0.5789378  0.0247434  0.0000000    0.00000       Uiso       1.00
        C2          C  0.5437286  0.1057223  0.0000000    0.00000       Uiso       1.00
        C3          C  0.5820589  0.1398091  0.0000000    0.00000       Uiso       1.00
        C4          C  0.5769434  0.1914946  0.0000000    0.00000       Uiso       1.00
        C5          C  0.6114161  0.2258401  0.0000000    0.00000       Uiso       1.00
        C6          C  0.6562961  0.2119112  0.0000000    0.00000       Uiso       1.00
        C7          C  0.6644221  0.1624978  0.0000000    0.00000       Uiso       1.00
        C8          C  0.6290461  0.1291508  0.0000000    0.00000       Uiso       1.00
        C9          C  0.6906918  0.2463194  0.0000000    0.00000       Uiso       1.00
        H1          H  0.6092989  0.0375594  0.0000000    0.00000       Uiso       1.00
        H2          H  0.5472770  0.2086659  0.0000000    0.00000       Uiso       1.00
        H3          H  0.6033208  0.2615346  0.0000000    0.00000       Uiso       1.00
        H4          H  0.6966985  0.1502799  0.0000000    0.00000       Uiso       1.00
        H5          H  0.6420570  0.0966602  0.0000000    0.00000       Uiso       1.00
        H6          H  0.6826278  0.2819637  0.0000000    0.00000       Uiso       1.00
        N1          N  0.2342235  0.2658152  0.0000000    0.00000       Uiso       1.00
        N1          N  0.7342235  0.7658150  0.0000000    0.00000       Uiso       1.00
        N1          N  0.7657765  0.7341845  0.0000000    0.00000       Uiso       1.00
        N1          N  0.2657765  0.2341846  0.0000000    0.00000       Uiso       1.00
        N1          N  0.7657765  0.2658152  0.0000000    0.00000       Uiso       1.00
        N1          N  0.2657765  0.7658150  0.0000000    0.00000       Uiso       1.00
        N1          N  0.2342235  0.7341845  0.0000000    0.00000       Uiso       1.00
        N1          N  0.7342235  0.2341846  0.0000000    0.00000       Uiso       1.00
       C41          C  0.0000000  0.3744727  0.0000000    0.00000       Uiso       1.00
       C42          C  0.0000000  0.5265561  0.0000000    0.00000       Uiso       1.00
         H          H  0.0000000  0.3402760  0.0000000    0.00000       Uiso       1.00
       C41          C  0.5000000  0.8744725  0.0000000    0.00000       Uiso       1.00
         H          H  0.5000000  0.8402758  0.0000000    0.00000       Uiso       1.00
       C41          C  0.0000000  0.6255269  0.0000000    0.00000       Uiso       1.00
       C42          C  0.0000000  0.4734436  0.0000000    0.00000       Uiso       1.00
         H          H  0.0000000  0.6597236  0.0000000    0.00000       Uiso       1.00
       C41          C  0.5000000  0.1255271  0.0000000    0.00000       Uiso       1.00
         H          H  0.5000000  0.1597239  0.0000000    0.00000       Uiso       1.00
       C42          C  0.5000000  0.0265563  0.0000000    0.00000       Uiso       1.00
       C42          C  0.5000000  0.9734434  0.0000000    0.00000       Uiso       1.00
