data_Py-DBA-COF-1
_audit_creation_date              0000-00-00
_audit_creation_method            'LanYouShi'
_symmetry_space_group_name_H-M    'P1'
_cell_length_a                    42.1637993
_cell_length_b                    42.1637993
_cell_length_c                    3.5084000
_cell_angle_alpha                 90.0000000
_cell_angle_beta                  90.0000000
_cell_angle_gamma                 120.0000000
loop_
_atom_site_label
_atom_site_type_symbol
_atom_site_fract_x
_atom_site_fract_y
_atom_site_fract_z
_atom_site_U_iso_or_equiv
_atom_site_adp_type
_atom_site_occupancy
        C1          C  0.4513604  0.4902719  0.0000000    0.00000       Uiso       1.00
        C2          C  0.4323337  0.5098971  0.0000000    0.00000       Uiso       1.00
        C3          C  0.4323935  0.4516303  0.0000000    0.00000       Uiso       1.00
        H1          H  0.4042825  0.4958748  0.0000000    0.00000       Uiso       1.00
        H2          H  0.4043694  0.4371208  0.0000000    0.00000       Uiso       1.00
        C4          C  0.3858418  0.8047599  0.0000000    0.00000       Uiso       1.00
        C5          C  0.3522322  0.7718699  0.0000000    0.00000       Uiso       1.00
        C6          C  0.3204413  0.7078893  0.0000000    0.00000       Uiso       1.00
        C7          C  0.3521628  0.7382442  0.0000000    0.00000       Uiso       1.00
        H3          H  0.3284491  0.7728716  0.0000000    0.00000       Uiso       1.00
        O1          O  0.3917931  0.8393130  0.0000000    0.00000       Uiso       1.00
        C8          C  0.5486426  0.5097311  0.0000000    0.00000       Uiso       1.00
        C9          C  0.5676692  0.4901058  0.0000000    0.00000       Uiso       1.00
       C10          C  0.5676094  0.5483726  0.0000000    0.00000       Uiso       1.00
        H4          H  0.5957204  0.5041280  0.0000000    0.00000       Uiso       1.00
        H5          H  0.5956335  0.5628822  0.0000000    0.00000       Uiso       1.00
       C11          C  0.6141576  0.1952408  0.0000000    0.00000       Uiso       1.00
       C12          C  0.6477674  0.2281305  0.0000000    0.00000       Uiso       1.00
       C13          C  0.6795589  0.2921111  0.0000000    0.00000       Uiso       1.00
       C14          C  0.7078893  0.3204413  0.0000000    0.00000       Uiso       1.00
       C15          C  0.6478372  0.2617564  0.0000000    0.00000       Uiso       1.00
        H6          H  0.6715503  0.2271285  0.0000000    0.00000       Uiso       1.00
        O2          O  0.6082058  0.1606874  0.0000000    0.00000       Uiso       1.00
       C16          C  0.5097311  0.5486425  0.0000000    0.00000       Uiso       1.00
       C17          C  0.4901058  0.5676692  0.0000000    0.00000       Uiso       1.00
       C18          C  0.5483726  0.5676094  0.0000000    0.00000       Uiso       1.00
        H7          H  0.5041280  0.5957204  0.0000000    0.00000       Uiso       1.00
        H8          H  0.5628821  0.5956335  0.0000000    0.00000       Uiso       1.00
       C19          C  0.1952408  0.6141576  0.0000000    0.00000       Uiso       1.00
       C20          C  0.2281305  0.6477674  0.0000000    0.00000       Uiso       1.00
       C21          C  0.2921111  0.6795589  0.0000000    0.00000       Uiso       1.00
       C22          C  0.2617564  0.6478372  0.0000000    0.00000       Uiso       1.00
        H9          H  0.2271285  0.6715503  0.0000000    0.00000       Uiso       1.00
        O3          O  0.1606874  0.6082058  0.0000000    0.00000       Uiso       1.00
       C23          C  0.4902718  0.4513604  0.0000000    0.00000       Uiso       1.00
       C24          C  0.5098971  0.4323336  0.0000000    0.00000       Uiso       1.00
       C25          C  0.4516303  0.4323935  0.0000000    0.00000       Uiso       1.00
       H10          H  0.4958748  0.4042825  0.0000000    0.00000       Uiso       1.00
       H11          H  0.4371207  0.4043694  0.0000000    0.00000       Uiso       1.00
       C26          C  0.8047599  0.3858418  0.0000000    0.00000       Uiso       1.00
       C27          C  0.7718699  0.3522322  0.0000000    0.00000       Uiso       1.00
       C28          C  0.7382442  0.3521628  0.0000000    0.00000       Uiso       1.00
       H12          H  0.7728715  0.3284490  0.0000000    0.00000       Uiso       1.00
        O4          O  0.8393130  0.3917931  0.0000000    0.00000       Uiso       1.00
        B1          B  0.4311078  0.8622176  0.0000000    0.00000       Uiso       1.00
        B2          B  0.5688910  0.1377832  0.0000000    0.00000       Uiso       1.00
       C29          C  0.4514791  0.5485237  0.0000000    0.00000       Uiso       1.00
       C30          C  0.4902693  0.5097336  0.0000000    0.00000       Uiso       1.00
       C31          C  0.5485237  0.4514791  0.0000000    0.00000       Uiso       1.00
       C32          C  0.5097336  0.4902693  0.0000000    0.00000       Uiso       1.00
       C33          C  0.5097289  0.9610893  0.0000000    0.00000       Uiso       1.00
       C34          C  0.4901038  0.9224375  0.0000000    0.00000       Uiso       1.00
       C35          C  0.5483705  0.9807640  0.0000000    0.00000       Uiso       1.00
       H13          H  0.5041260  0.9084086  0.0000000    0.00000       Uiso       1.00
       H14          H  0.5628800  0.9672494  0.0000000    0.00000       Uiso       1.00
       C36          C  0.1952409  0.5810827  0.0000000    0.00000       Uiso       1.00
       C37          C  0.2281309  0.5803631  0.0000000    0.00000       Uiso       1.00
       C38          C  0.2921115  0.6125528  0.0000000    0.00000       Uiso       1.00
       C39          C  0.2617566  0.6139194  0.0000000    0.00000       Uiso       1.00
       H15          H  0.2271293  0.5555784  0.0000000    0.00000       Uiso       1.00
        O5          O  0.1606878  0.5524809  0.0000000    0.00000       Uiso       1.00
       C40          C  0.4902698  0.0389115  0.0000000    0.00000       Uiso       1.00
       C41          C  0.5098950  0.0775634  0.0000000    0.00000       Uiso       1.00
       C42          C  0.4516282  0.0192368  0.0000000    0.00000       Uiso       1.00
       H16          H  0.4958728  0.0915924  0.0000000    0.00000       Uiso       1.00
       H17          H  0.4371186  0.0327514  0.0000000    0.00000       Uiso       1.00
       C43          C  0.8047601  0.4189168  0.0000000    0.00000       Uiso       1.00
       C44          C  0.7718703  0.4196369  0.0000000    0.00000       Uiso       1.00
       C45          C  0.7078897  0.3874478  0.0000000    0.00000       Uiso       1.00
       C46          C  0.6795595  0.3874479  0.0000000    0.00000       Uiso       1.00
       C47          C  0.7382444  0.3860808  0.0000000    0.00000       Uiso       1.00
       H18          H  0.7728723  0.4444218  0.0000000    0.00000       Uiso       1.00
        O6          O  0.8393134  0.4475184  0.0000000    0.00000       Uiso       1.00
       C48          C  0.4513583  0.9610893  0.0000000    0.00000       Uiso       1.00
       C49          C  0.4323316  0.9224375  0.0000000    0.00000       Uiso       1.00
       C50          C  0.4323914  0.9807640  0.0000000    0.00000       Uiso       1.00
       H19          H  0.4042804  0.9084085  0.0000000    0.00000       Uiso       1.00
       H20          H  0.4043674  0.9672495  0.0000000    0.00000       Uiso       1.00
       C51          C  0.3858433  0.5810840  0.0000000    0.00000       Uiso       1.00
       C52          C  0.3522334  0.5803639  0.0000000    0.00000       Uiso       1.00
       C53          C  0.3204420  0.6125531  0.0000000    0.00000       Uiso       1.00
       C54          C  0.3521636  0.6139200  0.0000000    0.00000       Uiso       1.00
       H21          H  0.3284505  0.5555790  0.0000000    0.00000       Uiso       1.00
        O7          O  0.3917950  0.5524824  0.0000000    0.00000       Uiso       1.00
       C55          C  0.5486404  0.0389115  0.0000000    0.00000       Uiso       1.00
       C56          C  0.5676671  0.0775634  0.0000000    0.00000       Uiso       1.00
       C57          C  0.5676073  0.0192368  0.0000000    0.00000       Uiso       1.00
       H22          H  0.5957183  0.0915923  0.0000000    0.00000       Uiso       1.00
       H23          H  0.5956314  0.0327513  0.0000000    0.00000       Uiso       1.00
       C58          C  0.6141590  0.4189181  0.0000000    0.00000       Uiso       1.00
       C59          C  0.6477687  0.4196377  0.0000000    0.00000       Uiso       1.00
       C60          C  0.6478379  0.3860813  0.0000000    0.00000       Uiso       1.00
       H24          H  0.6715518  0.4444224  0.0000000    0.00000       Uiso       1.00
        O8          O  0.6082077  0.4475199  0.0000000    0.00000       Uiso       1.00
        B3          B  0.1377832  0.5688910  0.0000000    0.00000       Uiso       1.00
        B4          B  0.8622177  0.4311079  0.0000000    0.00000       Uiso       1.00
       C61          C  0.4514771  0.9029562  0.0000000    0.00000       Uiso       1.00
       C62          C  0.4902672  0.9805365  0.0000000    0.00000       Uiso       1.00
       C63          C  0.5485217  0.0970446  0.0000000    0.00000       Uiso       1.00
       C64          C  0.5097315  0.0194643  0.0000000    0.00000       Uiso       1.00
       C65          C  0.0389115  0.5486404  0.0000000    0.00000       Uiso       1.00
       C66          C  0.0775634  0.5676671  0.0000000    0.00000       Uiso       1.00
       C67          C  0.0192368  0.5676073  0.0000000    0.00000       Uiso       1.00
       H25          H  0.0915923  0.5957183  0.0000000    0.00000       Uiso       1.00
       H26          H  0.0327514  0.5956314  0.0000000    0.00000       Uiso       1.00
       C68          C  0.4189181  0.6141590  0.0000000    0.00000       Uiso       1.00
       C69          C  0.4196377  0.6477686  0.0000000    0.00000       Uiso       1.00
       C70          C  0.3874480  0.6795595  0.0000000    0.00000       Uiso       1.00
       C71          C  0.3860814  0.6478380  0.0000000    0.00000       Uiso       1.00
       H27          H  0.4444225  0.6715518  0.0000000    0.00000       Uiso       1.00
        O9          O  0.4475200  0.6082077  0.0000000    0.00000       Uiso       1.00
       C72          C  0.9610893  0.4513583  0.0000000    0.00000       Uiso       1.00
       C73          C  0.9224374  0.4323316  0.0000000    0.00000       Uiso       1.00
       C74          C  0.9807640  0.4323914  0.0000000    0.00000       Uiso       1.00
       H28          H  0.9084085  0.4042804  0.0000000    0.00000       Uiso       1.00
       H29          H  0.9672494  0.4043673  0.0000000    0.00000       Uiso       1.00
       C75          C  0.5810840  0.3858432  0.0000000    0.00000       Uiso       1.00
       C76          C  0.5803639  0.3522334  0.0000000    0.00000       Uiso       1.00
       C77          C  0.6125531  0.3204419  0.0000000    0.00000       Uiso       1.00
       C78          C  0.6125529  0.2921115  0.0000000    0.00000       Uiso       1.00
       C79          C  0.6139200  0.3521636  0.0000000    0.00000       Uiso       1.00
       H30          H  0.5555790  0.3284505  0.0000000    0.00000       Uiso       1.00
       O10          O  0.5524824  0.3917950  0.0000000    0.00000       Uiso       1.00
       C80          C  0.0389115  0.4902698  0.0000000    0.00000       Uiso       1.00
       C81          C  0.0775634  0.5098950  0.0000000    0.00000       Uiso       1.00
       C82          C  0.0192368  0.4516282  0.0000000    0.00000       Uiso       1.00
       H31          H  0.0915923  0.4958727  0.0000000    0.00000       Uiso       1.00
       H32          H  0.0327514  0.4371187  0.0000000    0.00000       Uiso       1.00
       C83          C  0.4189168  0.8047600  0.0000000    0.00000       Uiso       1.00
       C84          C  0.4196369  0.7718703  0.0000000    0.00000       Uiso       1.00
       C85          C  0.3874478  0.7078897  0.0000000    0.00000       Uiso       1.00
       C86          C  0.3860807  0.7382444  0.0000000    0.00000       Uiso       1.00
       H33          H  0.4444218  0.7728723  0.0000000    0.00000       Uiso       1.00
       O11          O  0.4475184  0.8393133  0.0000000    0.00000       Uiso       1.00
       C87          C  0.9610893  0.5097290  0.0000000    0.00000       Uiso       1.00
       C88          C  0.9224375  0.4901038  0.0000000    0.00000       Uiso       1.00
       C89          C  0.9807640  0.5483705  0.0000000    0.00000       Uiso       1.00
       H34          H  0.9084085  0.5041261  0.0000000    0.00000       Uiso       1.00
       H35          H  0.9672495  0.5628801  0.0000000    0.00000       Uiso       1.00
       C90          C  0.5810828  0.1952410  0.0000000    0.00000       Uiso       1.00
       C91          C  0.5803631  0.2281309  0.0000000    0.00000       Uiso       1.00
       C92          C  0.6139195  0.2617567  0.0000000    0.00000       Uiso       1.00
       H36          H  0.5555784  0.2271293  0.0000000    0.00000       Uiso       1.00
       O12          O  0.5524809  0.1606878  0.0000000    0.00000       Uiso       1.00
        B5          B  0.4311098  0.5688930  0.0000000    0.00000       Uiso       1.00
        B6          B  0.5688930  0.4311098  0.0000000    0.00000       Uiso       1.00
       C93          C  0.0970446  0.5485216  0.0000000    0.00000       Uiso       1.00
       C94          C  0.0194642  0.5097315  0.0000000    0.00000       Uiso       1.00
       C95          C  0.9029562  0.4514771  0.0000000    0.00000       Uiso       1.00
       C96          C  0.9805365  0.4902672  0.0000000    0.00000       Uiso       1.00
