data_crystal
 
_cell_length_a    36.24420
_cell_length_b    36.24420
_cell_length_c    3.71230
_cell_angle_alpha 90.00000
_cell_angle_beta  90.00000
_cell_angle_gamma 120.00000
 
_symmetry_space_group_name_Hall 'P 1'
_symmetry_space_group_name_H-M  'P 1'
 
loop_
_symmetry_equiv_pos_as_xyz
 'x,y,z' 
 
loop_
_atom_site_label
_atom_site_type_symbol
_atom_site_fract_x
_atom_site_fract_y
_atom_site_fract_z
_atom_site_charge
C          C       0.49946   0.46162   0.50000   0.0000000000
C          C       0.46192   0.49997   0.50000   0.0000000000
C          C       0.53838   0.03784   0.50000   0.0000000000
C          C       0.50003   0.96195   0.50000   0.0000000000
C          C       0.96216   0.50054   0.50000   0.0000000000
C          C       0.03805   0.53808   0.50000   0.0000000000
C          C       0.50054   0.53838   0.50000   0.0000000000
C          C       0.53808   0.50003   0.50000   0.0000000000
C          C       0.46162   0.96216   0.50000   0.0000000000
C          C       0.49997   0.03805   0.50000   0.0000000000
C          C       0.03784   0.49946   0.50000   0.0000000000
C          C       0.96195   0.46192   0.50000   0.0000000000
C          C       0.46013   0.46039   0.50000   0.0000000000
C          C       0.53961   0.99974   0.50000   0.0000000000
C          C       0.00026   0.53987   0.50000   0.0000000000
C          C       0.53987   0.53961   0.50000   0.0000000000
C          C       0.46039   0.00026   0.50000   0.0000000000
C          C       0.99974   0.46013   0.50000   0.0000000000
N          N       0.50757   0.42962   0.50000   0.0000000000
O          O       0.43006   0.50865   0.50000   0.0000000000
N          N       0.57038   0.07795   0.50000   0.0000000000
O          O       0.49135   0.92142   0.50000   0.0000000000
N          N       0.92205   0.49243   0.50000   0.0000000000
O          O       0.07858   0.56994   0.50000   0.0000000000
N          N       0.49243   0.57038   0.50000   0.0000000000
O          O       0.56994   0.49135   0.50000   0.0000000000
N          N       0.42962   0.92205   0.50000   0.0000000000
O          O       0.50865   0.07858   0.50000   0.0000000000
N          N       0.07795   0.50757   0.50000   0.0000000000
O          O       0.92142   0.43006   0.50000   0.0000000000
C          C       0.44936   0.55207   0.50000   0.0000000000
C          C       0.44793   0.89728   0.50000   0.0000000000
C          C       0.10272   0.55064   0.50000   0.0000000000
C          C       0.55064   0.44793   0.50000   0.0000000000
C          C       0.55207   0.10272   0.50000   0.0000000000
C          C       0.89728   0.44936   0.50000   0.0000000000
H          H       0.43198   0.43251   0.50000   0.0000000000
H          H       0.56802   0.56749   0.50000   0.0000000000
H          H       0.56749   0.99947   0.50000   0.0000000000
H          H       0.00053   0.56802   0.50000   0.0000000000
H          H       0.43251   0.00053   0.50000   0.0000000000
H          H       0.99947   0.43198   0.50000   0.0000000000
C          C       0.55166   0.38047   0.50000   0.0000000000
C          C       0.57445   0.35846   0.50000   0.0000000000
C          C       0.38212   0.55292   0.50000   0.0000000000
C          C       0.35970   0.57531   0.50000   0.0000000000
C          C       0.61953   0.17119   0.50000   0.0000000000
C          C       0.64154   0.21600   0.50000   0.0000000000
C          C       0.44708   0.82920   0.50000   0.0000000000
C          C       0.42469   0.78439   0.50000   0.0000000000
C          C       0.82881   0.44834   0.50000   0.0000000000
C          C       0.78400   0.42555   0.50000   0.0000000000
C          C       0.17080   0.61788   0.50000   0.0000000000
C          C       0.21561   0.64030   0.50000   0.0000000000
C          C       0.44834   0.61953   0.50000   0.0000000000
C          C       0.42555   0.64154   0.50000   0.0000000000
C          C       0.61788   0.44708   0.50000   0.0000000000
C          C       0.64030   0.42469   0.50000   0.0000000000
C          C       0.38047   0.82881   0.50000   0.0000000000
C          C       0.35846   0.78400   0.50000   0.0000000000
C          C       0.55292   0.17080   0.50000   0.0000000000
C          C       0.57531   0.21561   0.50000   0.0000000000
C          C       0.17119   0.55166   0.50000   0.0000000000
C          C       0.21600   0.57445   0.50000   0.0000000000
C          C       0.82920   0.38212   0.50000   0.0000000000
C          C       0.78439   0.35970   0.50000   0.0000000000
H          H       0.51907   0.36336   0.50000   0.0000000000
H          H       0.55586   0.32631   0.50000   0.0000000000
H          H       0.36529   0.52031   0.50000   0.0000000000
H          H       0.32759   0.55645   0.50000   0.0000000000
H          H       0.63664   0.15571   0.50000   0.0000000000
H          H       0.67369   0.22955   0.50000   0.0000000000
H          H       0.47969   0.84498   0.50000   0.0000000000
H          H       0.44355   0.77114   0.50000   0.0000000000
H          H       0.84429   0.48093   0.50000   0.0000000000
H          H       0.77045   0.44414   0.50000   0.0000000000
H          H       0.15502   0.63471   0.50000   0.0000000000
H          H       0.22886   0.67241   0.50000   0.0000000000
H          H       0.48093   0.63664   0.50000   0.0000000000
H          H       0.44414   0.67369   0.50000   0.0000000000
H          H       0.63471   0.47969   0.50000   0.0000000000
H          H       0.67241   0.44355   0.50000   0.0000000000
H          H       0.36336   0.84429   0.50000   0.0000000000
H          H       0.32631   0.77045   0.50000   0.0000000000
H          H       0.52031   0.15502   0.50000   0.0000000000
H          H       0.55645   0.22886   0.50000   0.0000000000
H          H       0.15571   0.51907   0.50000   0.0000000000
H          H       0.22955   0.55586   0.50000   0.0000000000
H          H       0.84498   0.36529   0.50000   0.0000000000
H          H       0.77114   0.32759   0.50000   0.0000000000
C          C       0.64359   0.28676   0.50000   0.0000000000
C          C       0.71324   0.35683   0.50000   0.0000000000
C          C       0.64317   0.35641   0.50000   0.0000000000
C          C       0.57464   0.14764   0.50000   0.0000000000
C          C       0.85236   0.42700   0.50000   0.0000000000
C          C       0.57300   0.42536   0.50000   0.0000000000
C          C       0.62074   0.24065   0.50000   0.0000000000
C          C       0.75935   0.38009   0.50000   0.0000000000
C          C       0.61991   0.37926   0.50000   0.0000000000
C          C       0.68876   0.31163   0.50000   0.0000000000
C          C       0.68837   0.37713   0.50000   0.0000000000
C          C       0.62287   0.31124   0.50000   0.0000000000
C          C       0.35641   0.71324   0.50000   0.0000000000
C          C       0.28676   0.64317   0.50000   0.0000000000
C          C       0.35683   0.64359   0.50000   0.0000000000
C          C       0.42536   0.85236   0.50000   0.0000000000
C          C       0.14764   0.57300   0.50000   0.0000000000
C          C       0.42700   0.57464   0.50000   0.0000000000
C          C       0.37926   0.75935   0.50000   0.0000000000
C          C       0.24065   0.61991   0.50000   0.0000000000
C          C       0.38009   0.62074   0.50000   0.0000000000
C          C       0.31124   0.68837   0.50000   0.0000000000
C          C       0.31163   0.62287   0.50000   0.0000000000
C          C       0.37713   0.68876   0.50000   0.0000000000
H          H       0.59105   0.29519   0.50000   0.0000000000
H          H       0.70481   0.29586   0.50000   0.0000000000
H          H       0.70414   0.40895   0.50000   0.0000000000
H          H       0.40895   0.70481   0.50000   0.0000000000
H          H       0.29519   0.70414   0.50000   0.0000000000
H          H       0.29586   0.59105   0.50000   0.0000000000
