data_crystal

_cell_length_a    46.88900
_cell_length_b    34.51800
_cell_length_c    7.93700
_cell_angle_alpha 94.51200
_cell_angle_beta  89.46200
_cell_angle_gamma 90.00000

_space_group_name_Hall 'P 1'
_space_group_name_H-M_alt  'P 1'

loop_
_symmetry_equiv_pos_as_xyz
'x,y,z' 

loop_
_atom_site_label
_atom_site_type_symbol
_atom_site_fract_x
_atom_site_fract_y
_atom_site_fract_z
C          C       0.70120   0.60260   0.92210 
C          C       0.71690   0.63750   0.91540 
C          C       0.32750   0.53020   0.99210 
C          C       0.29520   0.45810   0.97550 
C          C       0.23880   0.35180   0.93970 
C          C       0.77840   0.81330   0.93360 
C          C       0.11040   0.03380   0.94080 
C          C       0.08020   0.03370   0.94420 
C          C       0.83870   0.99210   0.94200 
C          C       0.82310   0.95690   0.94990 
C          C       0.33880   0.63870   0.94330 
C          C       0.32310   0.67410   0.95040 
C          C       0.80100   0.10240   0.93140 
C          C       0.17640   0.17270   0.94200 
C          C       0.21820   0.99330   0.94180 
C          C       0.70630   0.67330   0.98620 
C          C       0.72440   0.70940   0.97350 
C          C       0.76210   0.77890   0.94300 
C          C       0.23320   0.28230   0.98760 
C          C       0.22240   0.31720   0.93160 
C          C       0.79600   0.17330   0.99140 
C          C       0.20590   0.95840   0.98680 
C          C       0.26210   0.85190   0.94960 
C          C       0.98530   0.09770   0.98850 
C          C       0.61060   0.59610   0.94950 
C          C       0.58040   0.59610   0.95030 
C          C       0.48580   0.59940   0.97650 
C          C       0.66340   0.49170   0.94700 
C          C       0.67890   0.45660   0.95490 
C          C       0.22420   0.92210   0.97720 
C          C       0.30020   0.52700   0.91800 
C          C       0.28450   0.49190   0.91040 
C          C       0.20250   0.02840   0.94790 
C          C       0.16180   0.13660   0.93800 
C          C       0.17350   0.03060   0.99910 
C          C       0.27850   0.81730   0.94200 
C          C       0.26730   0.78220   0.99350 
C          C       0.78530   0.13730   0.92530 
C          C       0.77780   0.20940   0.97930 
C          C       0.27700   0.42180   0.96350 
C          C       0.92280   0.09600   0.97190 
C          C       0.89250   0.09660   0.96880 
C          C       0.01570   0.09850   0.98930 
C          C       0.42120   0.53340   0.94920 
C          C       0.39110   0.53380   0.94680 
C          C       0.51620   0.59880   0.97620 
C          C       0.74010   0.27870   0.95020 
C          C       0.72380   0.31310   0.94100 
C          C       0.98410   0.15090   0.48020 
C          C       0.10870   0.15050   0.39420 
C          C       0.07850   0.15130   0.39610 
C          C       0.01440   0.15050   0.47910 
C          C       0.88990   0.15430   0.53240 
C          C       0.92010   0.15480   0.53150 
C          C       0.33690   0.61120   0.51400 
C          C       0.32110   0.57590   0.50680 
C          C       0.69990   0.72310   0.37840 
C          C       0.71540   0.75800   0.37130 
C          C       0.32590   0.64540   0.45030 
C          C       0.29360   0.57340   0.43600 
C          C       0.23710   0.46720   0.40090 
C          C       0.26510   0.46810   0.46490 
C          C       0.77570   0.04130   0.49200 
C          C       0.77720   0.93380   0.40100 
C          C       0.12510   0.18200   0.46520 
C          C       0.06310   0.18390   0.46650 
C          C       0.03060   0.18480   0.46710 
C          C       0.83890   0.11190   0.43040 
C          C       0.82300   0.07690   0.43450 
C          C       0.33710   0.75390   0.39970 
C          C       0.32160   0.78930   0.40730 
C          C       0.80040   0.22360   0.37670 
C          C       0.69990   0.64780   0.54910 
C          C       0.71560   0.61310   0.55690 
C          C       0.17640   0.28850   0.40500 
C          C       0.79750   0.14870   0.52310 
C          C       0.21670   0.10880   0.40030 
C          C       0.83690   0.25710   0.54040 
C          C       0.82660   0.14910   0.47430 
C          C       0.76620   0.97070   0.45740 
C          C       0.67270   0.72210   0.45520 
C          C       0.70460   0.79390   0.43990 
C          C       0.72260   0.83010   0.42840 
C          C       0.72160   0.93740   0.52800 
C          C       0.73270   0.90050   0.47160 
C          C       0.76090   0.89940   0.40770 
C          C       0.17250   0.21910   0.46660 
C          C       0.21440   0.25920   0.55080 
C          C       0.22120   0.32900   0.49210 
C          C       0.23140   0.39770   0.44870 
C          C       0.22070   0.43260   0.39310 
C          C       0.79570   0.29420   0.44690 
C          C       0.72350   0.54110   0.50220 
C          C       0.20420   0.07380   0.44310 
C          C       0.26050   0.96730   0.40650 
C          C       0.07940   0.21550   0.53640 
C          C       0.10960   0.21450   0.53620 
C          C       0.98490   0.21940   0.45410 
C          C       0.62520   0.68490   0.46220 
C          C       0.60940   0.71580   0.40240 
C          C       0.57930   0.71580   0.40150 
C          C       0.56310   0.68490   0.45950 
C          C       0.57880   0.65390   0.51890 
C          C       0.60910   0.65400   0.52070 
C          C       0.53050   0.68480   0.45800 
C          C       0.51470   0.65110   0.49000 
C          C       0.48420   0.71700   0.42500 
C          C       0.25940   0.39860   0.51270 
C          C       0.27580   0.43320   0.52050 
C          C       0.66250   0.61190   0.40300 
C          C       0.67830   0.57700   0.41130 
C          C       0.29860   0.72340   0.53970 
C          C       0.28300   0.75850   0.54650 
C          C       0.67290   0.64830   0.47200 
C          C       0.70530   0.57700   0.48860 
C          C       0.76140   0.47190   0.53320 
C          C       0.73410   0.47080   0.45930 
C          C       0.22250   0.03750   0.43420 
C          C       0.22090   0.93290   0.51820 
C          C       0.87360   0.18410   0.46690 
C          C       0.93570   0.18530   0.46720 
C          C       0.96830   0.18560   0.46720 
C          C       0.15950   0.11060   0.49690 
C          C       0.17520   0.07530   0.49150 
C          C       0.66180   0.75830   0.52430 
C          C       0.67730   0.79360   0.51660 
C          C       0.19930   0.22380   0.54470 
C          C       0.29840   0.64230   0.37950 
C          C       0.28270   0.60730   0.37310 
C          C       0.82190   0.29280   0.53240 
C          C       0.20110   0.14390   0.40600 
C          C       0.78170   0.11390   0.52780 
C          C       0.16130   0.25260   0.39770 
C          C       0.17200   0.14620   0.45470 
C          C       0.23210   0.96800   0.46630 
C          C       0.32600   0.71990   0.46580 
C          C       0.29410   0.79220   0.48090 
C          C       0.27590   0.82860   0.49200 
C          C       0.27700   0.93270   0.39930 
C          C       0.26580   0.89760   0.45130 
C          C       0.23740   0.89830   0.51120 
C          C       0.82640   0.22150   0.46330 
C          C       0.78540   0.25890   0.36950 
C          C       0.77800   0.33060   0.43350 
C          C       0.76750   0.40080   0.47990 
C          C       0.77770   0.43750   0.54320 
C          C       0.20340   0.29220   0.48130 
C          C       0.27540   0.53710   0.42480 
C          C       0.79400   0.07730   0.48350 
C          C       0.73800   0.97180   0.52110 
C          C       0.91960   0.21530   0.40280 
C          C       0.88940   0.21470   0.40230 
C          C       0.01460   0.21910   0.45540 
C          C       0.37360   0.68260   0.45830 
C          C       0.38930   0.71590   0.51590 
C          C       0.41950   0.71620   0.51500 
C          C       0.43560   0.68320   0.45790 
C          C       0.42010   0.64970   0.40200 
C          C       0.38980   0.64950   0.40130 
C          C       0.46810   0.68370   0.45680 
C          C       0.48430   0.65050   0.48860 
C          C       0.51380   0.71750   0.42460 
C          C       0.74020   0.39970   0.40590 
C          C       0.72400   0.43410   0.39600 
N          N       0.78550   0.88480   0.98720 
N          N       0.71680   0.38470   0.98960 
N          N       0.28500   0.74700   0.98330 
N          N       0.21560   0.24710   0.97710 
N          N       0.28280   0.50320   0.47550 
N          N       0.78390   0.00550   0.44880 
N          N       0.71510   0.86560   0.48190 
N          N       0.78490   0.36590   0.49340 
N          N       0.15680   0.18150   0.46130 
N          N       0.34200   0.68260   0.45790 
N          N       0.47290   0.75100   0.38840 
N          N       0.71660   0.50550   0.44630 
N          N       0.21430   0.00310   0.47520 
N          N       0.28350   0.86250   0.44120 
N          N       0.21380   0.36250   0.43810 
N          N       0.84190   0.18400   0.46920 
N          N       0.65680   0.68510   0.46340 
N          N       0.52440   0.75210   0.38920 
N          N       0.97430   0.25510   0.44080 
N          N       0.02580   0.25440   0.44100 
S          S       0.49830   0.78440   0.35440 
S          S       0.00040   0.28880   0.42770 
H          H       0.52555   0.62621   0.51510 
H          H       0.47381   0.62513   0.51143 
H          H       0.56877   0.73913   0.35702 
H          H       0.56798   0.63055   0.56215 
H          H       0.62019   0.73905   0.35808 
H          H       0.61966   0.63080   0.56611 
H          H       0.43002   0.74131   0.55739 
H          H       0.37844   0.74073   0.55991 
H          H       0.37930   0.62445   0.35789 
H          H       0.43102   0.62473   0.36061 
H          H       0.26948   0.99240   0.36720 
H          H       0.29774   0.93326   0.35483 
H          H       0.20015   0.93234   0.56247 
H          H       0.22843   0.87322   0.55069 
H          H       0.26292   0.75949   0.60102 
H          H       0.28964   0.69956   0.59049 
H          H       0.33059   0.81333   0.35819 
H          H       0.35711   0.75283   0.34427 
H          H       0.25575   0.82662   0.54404 
H          H       0.06903   0.23997   0.58903 
H          H       0.12061   0.23821   0.58949 
H          H       0.06746   0.12742   0.34467 
H          H       0.11905   0.12623   0.33943 
H          H       0.14161   0.25089   0.34057 
H          H       0.16744   0.31216   0.35366 
H          H       0.23409   0.26091   0.60794 
H          H       0.24099   0.32755   0.54709 
H          H       0.20032   0.43299   0.34528 
H          H       0.22842   0.49215   0.35908 
H          H       0.26808   0.37365   0.55452 
H          H       0.29618   0.43281   0.56832 
H          H       0.25542   0.53914   0.37278 
H          H       0.26263   0.60659   0.32069 
H          H       0.28950   0.66635   0.33094 
H          H       0.35692   0.61194   0.56705 
H          H       0.32992   0.55167   0.55426 
H          H       0.13829   0.11042   0.53268 
H          H       0.16517   0.05027   0.52365 
H          H       0.23788   0.10883   0.36368 
H          H       0.21130   0.16877   0.37346 
H          H       0.24326   0.04006   0.39216 
H          H       0.64287   0.61075   0.34506 
H          H       0.66988   0.55114   0.35983 
H          H       0.70840   0.67354   0.60125 
H          H       0.73525   0.61426   0.61453 
H          H       0.70417   0.43221   0.34065 
H          H       0.73192   0.37343   0.35828 
H          H       0.76966   0.49819   0.58081 
H          H       0.79755   0.43940   0.59828 
H          H       0.74300   0.54494   0.56039 
H          H       0.76633   0.25882   0.30563 
H          H       0.79207   0.19856   0.31670 
H          H       0.85598   0.25713   0.60419 
H          H       0.83033   0.31804   0.59004 
H          H       0.75878   0.32734   0.37169 
H          H       0.78743   0.17480   0.55653 
H          H       0.76054   0.11540   0.56478 
H          H       0.83288   0.05067   0.40094 
H          H       0.86010   0.11029   0.39435 
H          H       0.75501   0.04527   0.53549 
H          H       0.87858   0.23725   0.35338 
H          H       0.93014   0.23832   0.35473 
H          H       0.87943   0.13147   0.58243 
H          H       0.93098   0.13217   0.57933 
H          H       0.64198   0.75909   0.58209 
H          H       0.66847   0.81932   0.56777 
H          H       0.73526   0.75714   0.31402 
H          H       0.70875   0.69752   0.32575 
H          H       0.74256   0.82649   0.37352 
H          H       0.70104   0.93936   0.57541 
H          H       0.72911   0.99817   0.56357 
H          H       0.79775   0.93184   0.35343 
H          H       0.76981   0.87305   0.36508 
H          H       0.97410   0.12405   0.47586 
H          H       0.02195   0.12363   0.47300 
C          C       0.33820   0.49600   0.05750 
C          C       0.32250   0.46070   0.04920 
C          C       0.26670   0.35280   0.00450 
C          C       0.77860   0.92010   0.04740 
C          C       0.01610   0.03170   0.04800 
C          C       0.12640   0.06570   0.01010 
C          C       0.06450   0.06580   0.01470 
C          C       0.03200   0.06530   0.01800 
C          C       0.70100   0.52720   0.09240 
C          C       0.71650   0.49230   0.09980 
C          C       0.80170   0.02680   0.10140 
C          C       0.83900   0.13820   0.07150 
C          C       0.82840   0.02800   0.01800 
C          C       0.76810   0.84980   0.00020 
C          C       0.67410   0.60180   0.00070 
C          C       0.72460   0.81620   0.08650 
C          C       0.73480   0.77970   0.01980 
C          C       0.17350   0.10350   0.00740 
C          C       0.21600   0.14370   0.08790 
C          C       0.22310   0.21350   0.03030 
C          C       0.72400   0.42020   0.04450 
C          C       0.08020   0.09810   0.08160 
C          C       0.11050   0.09800   0.08010 
C          C       0.62650   0.56500   0.00780 
C          C       0.56450   0.56500   0.00830 
C          C       0.58030   0.53400   0.06600 
C          C       0.61050   0.53410   0.06620 
C          C       0.53180   0.56510   0.00850 
C          C       0.51500   0.53240   0.04090 
C          C       0.26110   0.28330   0.05230 
C          C       0.27750   0.31800   0.06040 
C          C       0.29990   0.60790   0.08000 
C          C       0.28430   0.64300   0.08620 
C          C       0.67400   0.52800   0.01580 
C          C       0.70590   0.45630   0.03160 
C          C       0.76170   0.35090   0.07300 
C          C       0.73420   0.34980   0.00200 
C          C       0.22240   0.81740   0.06030 
C          C       0.89250   0.03070   0.06150 
C          C       0.92260   0.03110   0.06140 
C          C       0.98650   0.03090   0.04970 
C          C       0.87590   0.06480   0.01270 
C          C       0.93860   0.06360   0.01740 
C          C       0.96950   0.06370   0.01860 
C          C       0.16130   0.99510   0.04370 
C          C       0.17700   0.95980   0.03800 
C          C       0.66350   0.63800   0.07240 
C          C       0.67920   0.67310   0.06520 
C          C       0.20070   0.10840   0.08260 
C          C       0.82320   0.17330   0.06490 
C          C       0.78620   0.99190   0.10890 
C          C       0.23370   0.85260   0.00910 
C          C       0.32750   0.60460   0.00820 
C          C       0.29550   0.67680   0.02210 
C          C       0.27730   0.71320   0.03290 
C          C       0.23890   0.78290   0.05300 
C          C       0.82830   0.10190   0.00440 
C          C       0.76760   0.27980   0.02120 
C          C       0.77800   0.31650   0.08220 
C          C       0.20510   0.17690   0.02000 
C          C       0.79650   0.95630   0.03380 
C          C       0.74080   0.85070   0.07710 
C          C       0.37510   0.56720   0.00210 
C          C       0.39110   0.60040   0.05850 
C          C       0.42140   0.60020   0.05920 
C          C       0.43710   0.56660   0.00540 
C          C       0.46960   0.56610   0.00730 
C          C       0.48550   0.53280   0.03910 
N          N       0.28440   0.38800   0.01550 
N          N       0.71730   0.74480   0.03210 
N          N       0.78510   0.24490   0.03300 
N          N       0.15810   0.06580   0.00520 
N          N       0.34350   0.56730   0.00080 
N          N       0.21590   0.88770   0.01850 
N          N       0.84430   0.06500   0.01100 
N          N       0.65810   0.56490   0.00790 
N          N       0.47380   0.49680   0.07810 
N          N       0.52570   0.49570   0.07940 
N          N       0.97630   0.99600   0.08290 
N          N       0.02770   0.99760   0.08110 
S          S       0.49930   0.46360   0.11360 
S          S       0.00260   0.96380   0.11370 
H          H       0.62133   0.61941   0.90521 
H          H       0.56973   0.61948   0.90729 
H          H       0.56956   0.51059   0.10929 
H          H       0.62112   0.51082   0.11048 
H          H       0.43215   0.62523   0.10004 
H          H       0.38043   0.62553   0.10042 
H          H       0.38043   0.50890   0.90326 
H          H       0.43187   0.50816   0.90879 
H          H       0.52717   0.62369   0.95169 
H          H       0.47536   0.62476   0.95368 
H          H       0.64376   0.49080   0.88927 
H          H       0.67027   0.43086   0.90366 
H          H       0.70967   0.55284   0.14450 
H          H       0.73619   0.49321   0.15693 
H          H       0.74363   0.42388   0.10124 
H          H       0.70377   0.31118   0.88816 
H          H       0.73169   0.25238   0.90410 
H          H       0.79803   0.31842   0.13504 
H          H       0.77011   0.37722   0.11909 
H          H       0.75804   0.20567   0.92421 
H          H       0.83184   0.19915   0.11484 
H          H       0.85884   0.13926   0.12685 
H          H       0.76540   0.13626   0.87066 
H          H       0.79224   0.07665   0.88112 
H          H       0.88231   0.12113   0.93323 
H          H       0.93375   0.12030   0.93949 
H          H       0.93333   0.00678   0.09466 
H          H       0.88181   0.00637   0.09597 
H          H       0.70982   0.57701   0.86796 
H          H       0.73667   0.63662   0.85693 
H          H       0.67065   0.69881   0.11853 
H          H       0.64379   0.63888   0.13158 
H          H       0.74397   0.70586   0.91371 
H          H       0.77037   0.75275   0.89266 
H          H       0.79828   0.81158   0.87664 
H          H       0.73250   0.87685   0.12723 
H          H       0.70475   0.81789   0.14390 
H          H       0.75923   0.92351   0.10963 
H          H       0.83141   0.93138   0.89320 
H          H       0.14198   0.13435   0.88266 
H          H       0.16708   0.19611   0.89065 
H          H       0.23582   0.14512   0.14347 
H          H       0.20974   0.08507   0.13598 
H          H       0.24300   0.21187   0.08382 
H          H       0.26977   0.25839   0.09454 
H          H       0.29786   0.31770   0.10851 
H          H       0.23015   0.37671   0.89736 
H          H       0.20204   0.31754   0.88352 
H          H       0.25712   0.42372   0.91005 
H          H       0.33120   0.43654   0.09788 
H          H       0.35804   0.49681   0.11290 
H          H       0.29147   0.55098   0.86798 
H          H       0.26462   0.49107   0.85550 
H          H       0.29083   0.58397   0.12947 
H          H       0.26411   0.64391   0.13924 
H          H       0.33210   0.69822   0.90215 
H          H       0.35894   0.63776   0.88956 
H          H       0.25707   0.71119   0.08378 
H          H       0.22992   0.75778   0.09208 
H          H       0.20162   0.81680   0.10409 
H          H       0.27113   0.87702   0.91085 
H          H       0.29923   0.81784   0.89747 
H          H       0.24493   0.92460   0.93464 
H          H       0.16711   0.93481   0.07182 
H          H       0.14193   0.99687   0.13881 
H          H       0.12122   0.12216   0.13151 
H          H       0.06946   0.12240   0.13288 
H          H       0.06945   0.00948   0.89370 
H          H       0.12104   0.00978   0.88591 
H          H       0.24154   0.99781   0.90407 
H          H       0.21008   0.05257   0.94056 
H          H       0.02566   0.12392   0.95685 
H          H       0.97729   0.12822   0.98227 
H          H       0.79639   0.05233   0.12473 
H          H       0.76980   0.99605   0.17987 
H          H       0.85794   0.99470   0.87025 
H          H       0.20817   0.20052   0.59930 
