data_crystal

_cell_length_a    55.03860
_cell_length_b    55.03860
_cell_length_c    7.86042
_cell_angle_alpha 90.00000
_cell_angle_beta  90.00000
_cell_angle_gamma 120.00000

_space_group_name_Hall 'P 1'
_space_group_name_H-M_alt  'P 1'

loop_
_symmetry_equiv_pos_as_xyz
'x,y,z' 

loop_
_atom_site_label
_atom_site_type_symbol
_atom_site_fract_x
_atom_site_fract_y
_atom_site_fract_z
C          C       0.46073   0.48703   0.09482 
C          C       0.51297   0.97370   0.09482 
C          C       0.02630   0.53927   0.09482 
C          C       0.53927   0.51297   0.09482 
C          C       0.48703   0.02630   0.09482 
C          C       0.97370   0.46073   0.09482 
C          C       0.44127   0.47359   0.04515 
C          C       0.52641   0.96768   0.04515 
C          C       0.03232   0.55873   0.04515 
C          C       0.55873   0.52641   0.04515 
C          C       0.47359   0.03232   0.04515 
C          C       0.96768   0.44127   0.04515 
C          C       0.41571   0.47254   0.04675 
C          C       0.52746   0.94317   0.04675 
C          C       0.05683   0.58429   0.04675 
C          C       0.58429   0.52746   0.04675 
C          C       0.47254   0.05683   0.04675 
C          C       0.94317   0.41571   0.04675 
C          C       0.45398   0.49883   0.14671 
C          C       0.50117   0.95515   0.14671 
C          C       0.04485   0.54602   0.14671 
C          C       0.54602   0.50117   0.14671 
C          C       0.49883   0.04485   0.14671 
C          C       0.95515   0.45398   0.14671 
C          C       0.47285   0.44217   0.14641 
C          C       0.55783   0.03068   0.14641 
C          C       0.96932   0.52715   0.14641 
C          C       0.52715   0.55783   0.14641 
C          C       0.44217   0.96932   0.14641 
C          C       0.03068   0.47285   0.14641 
C          C       0.47214   0.41681   0.14944 
C          C       0.58319   0.05533   0.14944 
C          C       0.94467   0.52786   0.14944 
C          C       0.52786   0.58319   0.14944 
C          C       0.41681   0.94467   0.14944 
C          C       0.05533   0.47214   0.14944 
C          C       0.49765   0.42739   0.04818 
C          C       0.57261   0.07026   0.04818 
C          C       0.92974   0.50235   0.04818 
C          C       0.50235   0.57261   0.04818 
C          C       0.42739   0.92974   0.04818 
C          C       0.07026   0.49765   0.04818 
C          C       0.49853   0.45283   0.04559 
C          C       0.54717   0.04570   0.04559 
C          C       0.95430   0.50147   0.04559 
C          C       0.50147   0.54717   0.04559 
C          C       0.45283   0.95430   0.04559 
C          C       0.04570   0.49853   0.04559 
C          C       0.36852   0.48011   0.15190 
C          C       0.51989   0.88841   0.15190 
C          C       0.11159   0.63148   0.15190 
C          C       0.63148   0.51989   0.15190 
C          C       0.48011   0.11159   0.15190 
C          C       0.88841   0.36852   0.15190 
C          C       0.34205   0.47992   0.14960 
C          C       0.52008   0.86213   0.14960 
C          C       0.13787   0.65795   0.14960 
C          C       0.65795   0.52008   0.14960 
C          C       0.47992   0.13787   0.14960 
C          C       0.86213   0.34205   0.14960 
C          C       0.32318   0.46786   0.20096 
C          C       0.53214   0.85532   0.20096 
C          C       0.14468   0.67682   0.20096 
C          C       0.67682   0.53214   0.20096 
C          C       0.46786   0.14468   0.20096 
C          C       0.85532   0.32318   0.20096 
C          C       0.29837   0.46828   0.20108 
C          C       0.53172   0.83009   0.20108 
C          C       0.16991   0.70163   0.20108 
C          C       0.70163   0.53172   0.20108 
C          C       0.46828   0.16991   0.20108 
C          C       0.83009   0.29837   0.20108 
C          C       0.29222   0.48120   0.15034 
C          C       0.51880   0.81102   0.15034 
C          C       0.18898   0.70778   0.15034 
C          C       0.70778   0.51880   0.15034 
C          C       0.48120   0.18898   0.15034 
C          C       0.81102   0.29222   0.15034 
C          C       0.26624   0.48236   0.15207 
C          C       0.51764   0.78388   0.15207 
C          C       0.21612   0.73376   0.15207 
C          C       0.73376   0.51764   0.15207 
C          C       0.48236   0.21612   0.15207 
C          C       0.78388   0.26624   0.15207 
C          C       0.48615   0.37177   0.15516 
C          C       0.62823   0.11438   0.15516 
C          C       0.88562   0.51385   0.15516 
C          C       0.51385   0.62823   0.15516 
C          C       0.37177   0.88562   0.15516 
C          C       0.11438   0.48615   0.15516 
C          C       0.48541   0.34504   0.15319 
C          C       0.65496   0.14037   0.15319 
C          C       0.85963   0.51459   0.15319 
C          C       0.51459   0.65496   0.15319 
C          C       0.34504   0.85963   0.15319 
C          C       0.14037   0.48541   0.15319 
C          C       0.49751   0.33800   0.20409 
C          C       0.66200   0.15951   0.20409 
C          C       0.84049   0.50249   0.20409 
C          C       0.50249   0.66200   0.20409 
C          C       0.33800   0.84049   0.20409 
C          C       0.15951   0.49751   0.20409 
C          C       0.49680   0.31263   0.20369 
C          C       0.68737   0.18417   0.20369 
C          C       0.81583   0.50320   0.20369 
C          C       0.50320   0.68737   0.20369 
C          C       0.31263   0.81583   0.20369 
C          C       0.18417   0.49680   0.20369 
C          C       0.48344   0.29369   0.15307 
C          C       0.70631   0.18975   0.15307 
C          C       0.81025   0.51656   0.15307 
C          C       0.51656   0.70631   0.15307 
C          C       0.29369   0.81025   0.15307 
C          C       0.18975   0.48344   0.15307 
C          C       0.47133   0.30064   0.10202 
C          C       0.69936   0.17069   0.10202 
C          C       0.82931   0.52867   0.10202 
C          C       0.52867   0.69936   0.10202 
C          C       0.30064   0.82931   0.10202 
C          C       0.17069   0.47133   0.10202 
C          C       0.47242   0.32623   0.10188 
C          C       0.67377   0.14619   0.10188 
C          C       0.85381   0.52758   0.10188 
C          C       0.52758   0.67377   0.10188 
C          C       0.32623   0.85381   0.10188 
C          C       0.14619   0.47242   0.10188 
C          C       0.50703   0.26636   0.14582 
C          C       0.73364   0.24067   0.14582 
C          C       0.75933   0.49297   0.14582 
C          C       0.49297   0.73364   0.14582 
C          C       0.26636   0.75933   0.14582 
C          C       0.24067   0.50703   0.14582 
C          C       0.45705   0.24139   0.16158 
C          C       0.75861   0.21566   0.16158 
C          C       0.78434   0.54295   0.16158 
C          C       0.54295   0.75861   0.16158 
C          C       0.24139   0.78434   0.16158 
C          C       0.21566   0.45705   0.16158 
C          C       0.24107   0.45752   0.15980 
C          C       0.54248   0.78355   0.15980 
C          C       0.21645   0.75893   0.15980 
C          C       0.75893   0.54248   0.15980 
C          C       0.45752   0.21645   0.15980 
C          C       0.78355   0.24107   0.15980 
H          H       0.46850   0.50874   0.18569 
H          H       0.49126   0.95976   0.18569 
H          H       0.04024   0.53150   0.18569 
H          H       0.53150   0.49126   0.18569 
H          H       0.50874   0.04024   0.18569 
H          H       0.95976   0.46850   0.18569 
H          H       0.44597   0.46409   0.00498 
H          H       0.53591   0.98188   0.00498 
H          H       0.01812   0.55403   0.00498 
H          H       0.55403   0.53591   0.00498 
H          H       0.46409   0.01812   0.00498 
H          H       0.98188   0.44597   0.00498 
H          H       0.40095   0.46216   0.00798 
H          H       0.53784   0.93879   0.00798 
H          H       0.06121   0.59905   0.00798 
H          H       0.59905   0.53784   0.00798 
H          H       0.46216   0.06121   0.00798 
H          H       0.93879   0.40095   0.00798 
H          H       0.42399   0.50744   0.18882 
H          H       0.49256   0.91655   0.18882 
H          H       0.08345   0.57601   0.18882 
H          H       0.57601   0.49256   0.18882 
H          H       0.50744   0.08345   0.18882 
H          H       0.91655   0.42399   0.18882 
H          H       0.46311   0.44761   0.18465 
H          H       0.55239   0.01550   0.18465 
H          H       0.98450   0.53689   0.18465 
H          H       0.53689   0.55239   0.18465 
H          H       0.44761   0.98450   0.18465 
H          H       0.01550   0.46311   0.18465 
H          H       0.46143   0.40291   0.18949 
H          H       0.59709   0.05852   0.18949 
H          H       0.94148   0.53857   0.18949 
H          H       0.53857   0.59709   0.18949 
H          H       0.40291   0.94148   0.18949 
H          H       0.05852   0.46143   0.18949 
H          H       0.50739   0.42193   0.00993 
H          H       0.57807   0.08546   0.00993 
H          H       0.91454   0.49261   0.00993 
H          H       0.49261   0.57807   0.00993 
H          H       0.42193   0.91454   0.00993 
H          H       0.08546   0.50739   0.00993 
H          H       0.50859   0.46648   0.00524 
H          H       0.53352   0.04211   0.00524 
H          H       0.95789   0.49141   0.00524 
H          H       0.49141   0.53352   0.00524 
H          H       0.46648   0.95789   0.00524 
H          H       0.04211   0.50859   0.00524 
H          H       0.32767   0.45811   0.24107 
H          H       0.54189   0.86956   0.24107 
H          H       0.13044   0.67233   0.24107 
H          H       0.67233   0.54189   0.24107 
H          H       0.45811   0.13044   0.24107 
H          H       0.86956   0.32767   0.24107 
H          H       0.28417   0.45899   0.24147 
H          H       0.54101   0.82518   0.24147 
H          H       0.17482   0.71583   0.24147 
H          H       0.71583   0.54101   0.24147 
H          H       0.45899   0.17482   0.24147 
H          H       0.82518   0.28417   0.24147 
H          H       0.30643   0.50271   0.05845 
H          H       0.49729   0.80372   0.05845 
H          H       0.19628   0.69357   0.05845 
H          H       0.69357   0.49729   0.05845 
H          H       0.50271   0.19628   0.05845 
H          H       0.80372   0.30643   0.05845 
H          H       0.35001   0.50194   0.05802 
H          H       0.49806   0.84807   0.05802 
H          H       0.15193   0.64999   0.05802 
H          H       0.64999   0.49806   0.05802 
H          H       0.50194   0.15193   0.05802 
H          H       0.84807   0.35001   0.05802 
H          H       0.48961   0.38224   0.20154 
H          H       0.61776   0.10737   0.20154 
H          H       0.89263   0.51039   0.20154 
H          H       0.51039   0.61776   0.20154 
H          H       0.38224   0.89263   0.20154 
H          H       0.10737   0.48961   0.20154 
H          H       0.50766   0.35225   0.24399 
H          H       0.64775   0.15541   0.24399 
H          H       0.84459   0.49234   0.24399 
H          H       0.49234   0.64775   0.24399 
H          H       0.35225   0.84459   0.24399 
H          H       0.15541   0.50766   0.24399 
H          H       0.50631   0.30755   0.24331 
H          H       0.69245   0.19876   0.24331 
H          H       0.80124   0.49369   0.24331 
H          H       0.49369   0.69245   0.24331 
H          H       0.30755   0.80124   0.24331 
H          H       0.19876   0.50631   0.24331 
H          H       0.46102   0.28622   0.06253 
H          H       0.71378   0.17480   0.06253 
H          H       0.82520   0.53898   0.06253 
H          H       0.53898   0.71378   0.06253 
H          H       0.28622   0.82520   0.06253 
H          H       0.17480   0.46102   0.06253 
H          H       0.46276   0.33113   0.06231 
H          H       0.66887   0.13163   0.06231 
H          H       0.86837   0.53724   0.06231 
H          H       0.53724   0.66887   0.06231 
H          H       0.33113   0.86837   0.06231 
H          H       0.13163   0.46276   0.06231 
H          H       0.52625   0.28582   0.14052 
H          H       0.71418   0.24043   0.14052 
H          H       0.75957   0.47375   0.14052 
H          H       0.47375   0.71418   0.14052 
H          H       0.28582   0.75957   0.14052 
H          H       0.24043   0.52625   0.14052 
C          C       0.43027   0.24032   0.17356 
C          C       0.75968   0.18995   0.17356 
C          C       0.81005   0.56973   0.17356 
C          C       0.56973   0.75968   0.17356 
C          C       0.24032   0.81005   0.17356 
C          C       0.18995   0.43027   0.17356 
C          C       0.29181   0.53473   0.14073 
C          C       0.46527   0.75708   0.14073 
C          C       0.24292   0.70819   0.14073 
C          C       0.70819   0.46527   0.14073 
C          C       0.53473   0.24292   0.14073 
C          C       0.75708   0.29181   0.14073 
H          H       0.24138   0.43834   0.16511 
H          H       0.56166   0.80304   0.16511 
H          H       0.19696   0.75862   0.16511 
H          H       0.75862   0.56166   0.16511 
H          H       0.43834   0.19696   0.16511 
H          H       0.80304   0.24138   0.16511 
N          N       0.48444   0.38348   0.10206 
N          N       0.61652   0.10096   0.10206 
N          N       0.89904   0.51556   0.10206 
N          N       0.51556   0.61652   0.10206 
N          N       0.38348   0.89904   0.10206 
N          N       0.10096   0.48444   0.10206 
O          O       0.81110   0.59140   0.15851 
O          O       0.40860   0.21970   0.15851 
O          O       0.78030   0.18890   0.15851 
O          O       0.18890   0.40860   0.15851 
O          O       0.59140   0.78030   0.15851 
O          O       0.21970   0.81110   0.15851 
O          O       0.83282   0.57040   0.20355 
O          O       0.42960   0.26242   0.20355 
O          O       0.73758   0.16718   0.20355 
O          O       0.16718   0.42960   0.20355 
O          O       0.57040   0.73758   0.20355 
O          O       0.26242   0.83282   0.20355 
O          O       0.68586   0.45786   0.18259 
O          O       0.54214   0.22800   0.18259 
O          O       0.77200   0.31414   0.18259 
O          O       0.31414   0.54214   0.18259 
O          O       0.45786   0.77200   0.18259 
O          O       0.22800   0.68586   0.18259 
H          H       0.84894   0.58990   0.20923 
H          H       0.41010   0.25904   0.20923 
H          H       0.74096   0.15106   0.20923 
H          H       0.15106   0.41010   0.20923 
H          H       0.58990   0.74096   0.20923 
H          H       0.25904   0.84894   0.20923 
H          H       0.69017   0.47164   0.21906 
H          H       0.52836   0.21853   0.21906 
H          H       0.78147   0.30983   0.21906 
H          H       0.30983   0.52836   0.21906 
H          H       0.47164   0.78147   0.21906 
H          H       0.21853   0.69017   0.21906 
C          C       0.48776   0.48776   0.09332 
C          C       0.51224   1.00000   0.09332 
C          C       0.00000   0.51224   0.09332 
C          C       0.51224   0.51224   0.09332 
C          C       0.48776   0.00000   0.09332 
C          C       1.00000   0.48776   0.09332 
C          C       0.48703   0.46073   0.09482 
C          C       0.53927   0.02630   0.09482 
C          C       0.97370   0.51297   0.09482 
C          C       0.51297   0.53927   0.09482 
C          C       0.46073   0.97370   0.09482 
C          C       0.02630   0.48703   0.09482 
C          C       0.48236   0.26624   0.15207 
C          C       0.73376   0.21612   0.15207 
C          C       0.78388   0.51764   0.15207 
C          C       0.51764   0.73376   0.15207 
C          C       0.26624   0.78388   0.15207 
C          C       0.21612   0.48236   0.15207 
C          C       0.50703   0.24067   0.14582 
C          C       0.75933   0.26636   0.14582 
C          C       0.73364   0.49297   0.14582 
C          C       0.49297   0.75933   0.14582 
C          C       0.24067   0.73364   0.14582 
C          C       0.26636   0.50703   0.14582 
H          H       0.37558   0.47677   0.19767 
H          H       0.52323   0.89881   0.19767 
H          H       0.10119   0.62442   0.19767 
H          H       0.62442   0.52323   0.19767 
H          H       0.47677   0.10119   0.19767 
H          H       0.89881   0.37558   0.19767 
C          C       0.40897   0.48429   0.09883 
C          C       0.51571   0.92468   0.09883 
C          C       0.07532   0.59103   0.09883 
C          C       0.59103   0.51571   0.09883 
C          C       0.48429   0.07532   0.09883 
C          C       0.92468   0.40897   0.09883 
C          C       0.31094   0.49296   0.09883 
C          C       0.50704   0.81798   0.09883 
C          C       0.18202   0.68906   0.09883 
C          C       0.68906   0.50704   0.09883 
C          C       0.49296   0.18202   0.09883 
C          C       0.81798   0.31094   0.09883 
C          C       0.33568   0.49232   0.09883 
C          C       0.50768   0.84336   0.09883 
C          C       0.15664   0.66432   0.09883 
C          C       0.66432   0.50768   0.09883 
C          C       0.49232   0.15664   0.09883 
C          C       0.84336   0.33568   0.09883 
N          N       0.38264   0.48301   0.09883 
N          N       0.51699   0.89963   0.09883 
N          N       0.10037   0.61736   0.09883 
N          N       0.61736   0.51699   0.09883 
N          N       0.48301   0.10037   0.09883 
N          N       0.89963   0.38264   0.09883 
O          O       0.70658   0.44867   0.09883 
O          O       0.55133   0.25791   0.09883 
O          O       0.74209   0.29342   0.09883 
O          O       0.29342   0.55133   0.09883 
O          O       0.44867   0.74209   0.09883 
O          O       0.25791   0.70658   0.09883 
C          C       0.48429   0.40897   0.09883 
C          C       0.59103   0.07532   0.09883 
C          C       0.92468   0.51571   0.09883 
C          C       0.51571   0.59103   0.09883 
C          C       0.40897   0.92468   0.09883 
C          C       0.07532   0.48429   0.09883 
C          C       0.43295   0.50006   0.14665 
C          C       0.49994   0.93289   0.14665 
C          C       0.06711   0.56705   0.14665 
C          C       0.56705   0.49994   0.14665 
C          C       0.50006   0.06711   0.14665 
C          C       0.93289   0.43295   0.14665 
C          C       0.46073   0.48703   0.59482 
C          C       0.51297   0.97370   0.59482 
C          C       0.02630   0.53927   0.59482 
C          C       0.53927   0.51297   0.59482 
C          C       0.48703   0.02630   0.59482 
C          C       0.97370   0.46073   0.59482 
C          C       0.44127   0.47359   0.54515 
C          C       0.52641   0.96768   0.54515 
C          C       0.03232   0.55873   0.54515 
C          C       0.55873   0.52641   0.54515 
C          C       0.47359   0.03232   0.54515 
C          C       0.96768   0.44127   0.54515 
C          C       0.41571   0.47254   0.54675 
C          C       0.52746   0.94317   0.54675 
C          C       0.05683   0.58429   0.54675 
C          C       0.58429   0.52746   0.54675 
C          C       0.47254   0.05683   0.54675 
C          C       0.94317   0.41571   0.54675 
C          C       0.45398   0.49883   0.64671 
C          C       0.50117   0.95515   0.64671 
C          C       0.04485   0.54602   0.64671 
C          C       0.54602   0.50117   0.64671 
C          C       0.49883   0.04485   0.64671 
C          C       0.95515   0.45398   0.64671 
C          C       0.47285   0.44217   0.64641 
C          C       0.55783   0.03068   0.64641 
C          C       0.96932   0.52715   0.64641 
C          C       0.52715   0.55783   0.64641 
C          C       0.44217   0.96932   0.64641 
C          C       0.03068   0.47285   0.64641 
C          C       0.47214   0.41681   0.64944 
C          C       0.58319   0.05533   0.64944 
C          C       0.94467   0.52786   0.64944 
C          C       0.52786   0.58319   0.64944 
C          C       0.41681   0.94467   0.64944 
C          C       0.05533   0.47214   0.64944 
C          C       0.49765   0.42739   0.54818 
C          C       0.57261   0.07026   0.54818 
C          C       0.92974   0.50235   0.54818 
C          C       0.50235   0.57261   0.54818 
C          C       0.42739   0.92974   0.54818 
C          C       0.07026   0.49765   0.54818 
C          C       0.49853   0.45283   0.54559 
C          C       0.54717   0.04570   0.54559 
C          C       0.95430   0.50147   0.54559 
C          C       0.50147   0.54717   0.54559 
C          C       0.45283   0.95430   0.54559 
C          C       0.04570   0.49853   0.54559 
C          C       0.36852   0.48011   0.65190 
C          C       0.51989   0.88841   0.65190 
C          C       0.11159   0.63148   0.65190 
C          C       0.63148   0.51989   0.65190 
C          C       0.48011   0.11159   0.65190 
C          C       0.88841   0.36852   0.65190 
C          C       0.34205   0.47992   0.64960 
C          C       0.52008   0.86213   0.64960 
C          C       0.13787   0.65795   0.64960 
C          C       0.65795   0.52008   0.64960 
C          C       0.47992   0.13787   0.64960 
C          C       0.86213   0.34205   0.64960 
C          C       0.32318   0.46786   0.70096 
C          C       0.53214   0.85532   0.70096 
C          C       0.14468   0.67682   0.70096 
C          C       0.67682   0.53214   0.70096 
C          C       0.46786   0.14468   0.70096 
C          C       0.85532   0.32318   0.70096 
C          C       0.29837   0.46828   0.70108 
C          C       0.53172   0.83009   0.70108 
C          C       0.16991   0.70163   0.70108 
C          C       0.70163   0.53172   0.70108 
C          C       0.46828   0.16991   0.70108 
C          C       0.83009   0.29837   0.70108 
C          C       0.29222   0.48120   0.65034 
C          C       0.51880   0.81102   0.65034 
C          C       0.18898   0.70778   0.65034 
C          C       0.70778   0.51880   0.65034 
C          C       0.48120   0.18898   0.65034 
C          C       0.81102   0.29222   0.65034 
C          C       0.26624   0.48236   0.65207 
C          C       0.51764   0.78388   0.65207 
C          C       0.21612   0.73376   0.65207 
C          C       0.73376   0.51764   0.65207 
C          C       0.48236   0.21612   0.65207 
C          C       0.78388   0.26624   0.65207 
C          C       0.48615   0.37177   0.65516 
C          C       0.62823   0.11438   0.65516 
C          C       0.88562   0.51385   0.65516 
C          C       0.51385   0.62823   0.65516 
C          C       0.37177   0.88562   0.65516 
C          C       0.11438   0.48615   0.65516 
C          C       0.48541   0.34504   0.65319 
C          C       0.65496   0.14037   0.65319 
C          C       0.85963   0.51459   0.65319 
C          C       0.51459   0.65496   0.65319 
C          C       0.34504   0.85963   0.65319 
C          C       0.14037   0.48541   0.65319 
C          C       0.49751   0.33800   0.70409 
C          C       0.66200   0.15951   0.70409 
C          C       0.84049   0.50249   0.70409 
C          C       0.50249   0.66200   0.70409 
C          C       0.33800   0.84049   0.70409 
C          C       0.15951   0.49751   0.70409 
C          C       0.49680   0.31263   0.70369 
C          C       0.68737   0.18417   0.70369 
C          C       0.81583   0.50320   0.70369 
C          C       0.50320   0.68737   0.70369 
C          C       0.31263   0.81583   0.70369 
C          C       0.18417   0.49680   0.70369 
C          C       0.48344   0.29369   0.65307 
C          C       0.70631   0.18975   0.65307 
C          C       0.81025   0.51656   0.65307 
C          C       0.51656   0.70631   0.65307 
C          C       0.29369   0.81025   0.65307 
C          C       0.18975   0.48344   0.65307 
C          C       0.47133   0.30064   0.60202 
C          C       0.69936   0.17069   0.60202 
C          C       0.82931   0.52867   0.60202 
C          C       0.52867   0.69936   0.60202 
C          C       0.30064   0.82931   0.60202 
C          C       0.17069   0.47133   0.60202 
C          C       0.47242   0.32623   0.60188 
C          C       0.67377   0.14619   0.60188 
C          C       0.85381   0.52758   0.60188 
C          C       0.52758   0.67377   0.60188 
C          C       0.32623   0.85381   0.60188 
C          C       0.14619   0.47242   0.60188 
C          C       0.50703   0.26636   0.64582 
C          C       0.73364   0.24067   0.64582 
C          C       0.75933   0.49297   0.64582 
C          C       0.49297   0.73364   0.64582 
C          C       0.26636   0.75933   0.64582 
C          C       0.24067   0.50703   0.64582 
C          C       0.45705   0.24139   0.66158 
C          C       0.75861   0.21566   0.66158 
C          C       0.78434   0.54295   0.66158 
C          C       0.54295   0.75861   0.66158 
C          C       0.24139   0.78434   0.66158 
C          C       0.21566   0.45705   0.66158 
C          C       0.24107   0.45752   0.65980 
C          C       0.54248   0.78355   0.65980 
C          C       0.21645   0.75893   0.65980 
C          C       0.75893   0.54248   0.65980 
C          C       0.45752   0.21645   0.65980 
C          C       0.78355   0.24107   0.65980 
H          H       0.46850   0.50874   0.68569 
H          H       0.49126   0.95976   0.68569 
H          H       0.04024   0.53150   0.68569 
H          H       0.53150   0.49126   0.68569 
H          H       0.50874   0.04024   0.68569 
H          H       0.95976   0.46850   0.68569 
H          H       0.44597   0.46409   0.50498 
H          H       0.53591   0.98188   0.50498 
H          H       0.01812   0.55403   0.50498 
H          H       0.55403   0.53591   0.50498 
H          H       0.46409   0.01812   0.50498 
H          H       0.98188   0.44597   0.50498 
H          H       0.40095   0.46216   0.50798 
H          H       0.53784   0.93879   0.50798 
H          H       0.06121   0.59905   0.50798 
H          H       0.59905   0.53784   0.50798 
H          H       0.46216   0.06121   0.50798 
H          H       0.93879   0.40095   0.50798 
H          H       0.42399   0.50744   0.68882 
H          H       0.49256   0.91655   0.68882 
H          H       0.08345   0.57601   0.68882 
H          H       0.57601   0.49256   0.68882 
H          H       0.50744   0.08345   0.68882 
H          H       0.91655   0.42399   0.68882 
H          H       0.46311   0.44761   0.68465 
H          H       0.55239   0.01550   0.68465 
H          H       0.98450   0.53689   0.68465 
H          H       0.53689   0.55239   0.68465 
H          H       0.44761   0.98450   0.68465 
H          H       0.01550   0.46311   0.68465 
H          H       0.46143   0.40291   0.68949 
H          H       0.59709   0.05852   0.68949 
H          H       0.94148   0.53857   0.68949 
H          H       0.53857   0.59709   0.68949 
H          H       0.40291   0.94148   0.68949 
H          H       0.05852   0.46143   0.68949 
H          H       0.50739   0.42193   0.50993 
H          H       0.57807   0.08546   0.50993 
H          H       0.91454   0.49261   0.50993 
H          H       0.49261   0.57807   0.50993 
H          H       0.42193   0.91454   0.50993 
H          H       0.08546   0.50739   0.50993 
H          H       0.50859   0.46648   0.50524 
H          H       0.53352   0.04211   0.50524 
H          H       0.95789   0.49141   0.50524 
H          H       0.49141   0.53352   0.50524 
H          H       0.46648   0.95789   0.50524 
H          H       0.04211   0.50859   0.50524 
H          H       0.32767   0.45811   0.74107 
H          H       0.54189   0.86956   0.74107 
H          H       0.13044   0.67233   0.74107 
H          H       0.67233   0.54189   0.74107 
H          H       0.45811   0.13044   0.74107 
H          H       0.86956   0.32767   0.74107 
H          H       0.28417   0.45899   0.74147 
H          H       0.54101   0.82518   0.74147 
H          H       0.17482   0.71583   0.74147 
H          H       0.71583   0.54101   0.74147 
H          H       0.45899   0.17482   0.74147 
H          H       0.82518   0.28417   0.74147 
H          H       0.30643   0.50271   0.55845 
H          H       0.49729   0.80372   0.55845 
H          H       0.19628   0.69357   0.55845 
H          H       0.69357   0.49729   0.55845 
H          H       0.50271   0.19628   0.55845 
H          H       0.80372   0.30643   0.55845 
H          H       0.35001   0.50194   0.55802 
H          H       0.49806   0.84807   0.55802 
H          H       0.15193   0.64999   0.55802 
H          H       0.64999   0.49806   0.55802 
H          H       0.50194   0.15193   0.55802 
H          H       0.84807   0.35001   0.55802 
H          H       0.48961   0.38224   0.70154 
H          H       0.61776   0.10737   0.70154 
H          H       0.89263   0.51039   0.70154 
H          H       0.51039   0.61776   0.70154 
H          H       0.38224   0.89263   0.70154 
H          H       0.10737   0.48961   0.70154 
H          H       0.50766   0.35225   0.74399 
H          H       0.64775   0.15541   0.74399 
H          H       0.84459   0.49234   0.74399 
H          H       0.49234   0.64775   0.74399 
H          H       0.35225   0.84459   0.74399 
H          H       0.15541   0.50766   0.74399 
H          H       0.50631   0.30755   0.74331 
H          H       0.69245   0.19876   0.74331 
H          H       0.80124   0.49369   0.74331 
H          H       0.49369   0.69245   0.74331 
H          H       0.30755   0.80124   0.74331 
H          H       0.19876   0.50631   0.74331 
H          H       0.46102   0.28622   0.56253 
H          H       0.71378   0.17480   0.56253 
H          H       0.82520   0.53898   0.56253 
H          H       0.53898   0.71378   0.56253 
H          H       0.28622   0.82520   0.56253 
H          H       0.17480   0.46102   0.56253 
H          H       0.46276   0.33113   0.56231 
H          H       0.66887   0.13163   0.56231 
H          H       0.86837   0.53724   0.56231 
H          H       0.53724   0.66887   0.56231 
H          H       0.33113   0.86837   0.56231 
H          H       0.13163   0.46276   0.56231 
H          H       0.52625   0.28582   0.64052 
H          H       0.71418   0.24043   0.64052 
H          H       0.75957   0.47375   0.64052 
H          H       0.47375   0.71418   0.64052 
H          H       0.28582   0.75957   0.64052 
H          H       0.24043   0.52625   0.64052 
C          C       0.43027   0.24032   0.67356 
C          C       0.75968   0.18995   0.67356 
C          C       0.81005   0.56973   0.67356 
C          C       0.56973   0.75968   0.67356 
C          C       0.24032   0.81005   0.67356 
C          C       0.18995   0.43027   0.67356 
C          C       0.29181   0.53473   0.64073 
C          C       0.46527   0.75708   0.64073 
C          C       0.24292   0.70819   0.64073 
C          C       0.70819   0.46527   0.64073 
C          C       0.53473   0.24292   0.64073 
C          C       0.75708   0.29181   0.64073 
H          H       0.24138   0.43834   0.66511 
H          H       0.56166   0.80304   0.66511 
H          H       0.19696   0.75862   0.66511 
H          H       0.75862   0.56166   0.66511 
H          H       0.43834   0.19696   0.66511 
H          H       0.80304   0.24138   0.66511 
N          N       0.48444   0.38348   0.60206 
N          N       0.61652   0.10096   0.60206 
N          N       0.89904   0.51556   0.60206 
N          N       0.51556   0.61652   0.60206 
N          N       0.38348   0.89904   0.60206 
N          N       0.10096   0.48444   0.60206 
O          O       0.81110   0.59140   0.65851 
O          O       0.40860   0.21970   0.65851 
O          O       0.78030   0.18890   0.65851 
O          O       0.18890   0.40860   0.65851 
O          O       0.59140   0.78030   0.65851 
O          O       0.21970   0.81110   0.65851 
O          O       0.83282   0.57040   0.70355 
O          O       0.42960   0.26242   0.70355 
O          O       0.73758   0.16718   0.70355 
O          O       0.16718   0.42960   0.70355 
O          O       0.57040   0.73758   0.70355 
O          O       0.26242   0.83282   0.70355 
O          O       0.68586   0.45786   0.68259 
O          O       0.54214   0.22800   0.68259 
O          O       0.77200   0.31414   0.68259 
O          O       0.31414   0.54214   0.68259 
O          O       0.45786   0.77200   0.68259 
O          O       0.22800   0.68586   0.68259 
H          H       0.84894   0.58990   0.70923 
H          H       0.41010   0.25904   0.70923 
H          H       0.74096   0.15106   0.70923 
H          H       0.15106   0.41010   0.70923 
H          H       0.58990   0.74096   0.70923 
H          H       0.25904   0.84894   0.70923 
H          H       0.69017   0.47164   0.71906 
H          H       0.52836   0.21853   0.71906 
H          H       0.78147   0.30983   0.71906 
H          H       0.30983   0.52836   0.71906 
H          H       0.47164   0.78147   0.71906 
H          H       0.21853   0.69017   0.71906 
C          C       0.48776   0.48776   0.59332 
C          C       0.51224   1.00000   0.59332 
C          C       0.00000   0.51224   0.59332 
C          C       0.51224   0.51224   0.59332 
C          C       0.48776   0.00000   0.59332 
C          C       1.00000   0.48776   0.59332 
C          C       0.48703   0.46073   0.59482 
C          C       0.53927   0.02630   0.59482 
C          C       0.97370   0.51297   0.59482 
C          C       0.51297   0.53927   0.59482 
C          C       0.46073   0.97370   0.59482 
C          C       0.02630   0.48703   0.59482 
C          C       0.48236   0.26624   0.65207 
C          C       0.73376   0.21612   0.65207 
C          C       0.78388   0.51764   0.65207 
C          C       0.51764   0.73376   0.65207 
C          C       0.26624   0.78388   0.65207 
C          C       0.21612   0.48236   0.65207 
C          C       0.50703   0.24067   0.64582 
C          C       0.75933   0.26636   0.64582 
C          C       0.73364   0.49297   0.64582 
C          C       0.49297   0.75933   0.64582 
C          C       0.24067   0.73364   0.64582 
C          C       0.26636   0.50703   0.64582 
H          H       0.37558   0.47677   0.69767 
H          H       0.52323   0.89881   0.69767 
H          H       0.10119   0.62442   0.69767 
H          H       0.62442   0.52323   0.69767 
H          H       0.47677   0.10119   0.69767 
H          H       0.89881   0.37558   0.69767 
C          C       0.40897   0.48429   0.59883 
C          C       0.51571   0.92468   0.59883 
C          C       0.07532   0.59103   0.59883 
C          C       0.59103   0.51571   0.59883 
C          C       0.48429   0.07532   0.59883 
C          C       0.92468   0.40897   0.59883 
C          C       0.31094   0.49296   0.59883 
C          C       0.50704   0.81798   0.59883 
C          C       0.18202   0.68906   0.59883 
C          C       0.68906   0.50704   0.59883 
C          C       0.49296   0.18202   0.59883 
C          C       0.81798   0.31094   0.59883 
C          C       0.33568   0.49232   0.59883 
C          C       0.50768   0.84336   0.59883 
C          C       0.15664   0.66432   0.59883 
C          C       0.66432   0.50768   0.59883 
C          C       0.49232   0.15664   0.59883 
C          C       0.84336   0.33568   0.59883 
N          N       0.38264   0.48301   0.59883 
N          N       0.51699   0.89963   0.59883 
N          N       0.10037   0.61736   0.59883 
N          N       0.61736   0.51699   0.59883 
N          N       0.48301   0.10037   0.59883 
N          N       0.89963   0.38264   0.59883 
O          O       0.70658   0.44867   0.59883 
O          O       0.55133   0.25791   0.59883 
O          O       0.74209   0.29342   0.59883 
O          O       0.29342   0.55133   0.59883 
O          O       0.44867   0.74209   0.59883 
O          O       0.25791   0.70658   0.59883 
C          C       0.48429   0.40897   0.59883 
C          C       0.59103   0.07532   0.59883 
C          C       0.92468   0.51571   0.59883 
C          C       0.51571   0.59103   0.59883 
C          C       0.40897   0.92468   0.59883 
C          C       0.07532   0.48429   0.59883 
C          C       0.43295   0.50006   0.64665 
C          C       0.49994   0.93289   0.64665 
C          C       0.06711   0.56705   0.64665 
C          C       0.56705   0.49994   0.64665 
C          C       0.50006   0.06711   0.64665 
C          C       0.93289   0.43295   0.64665 
