data_crystal

_cell_length_a    31.58610
_cell_length_b    31.58610
_cell_length_c    6.86760
_cell_angle_alpha 90.00000
_cell_angle_beta  90.00000
_cell_angle_gamma 120.00000

_space_group_name_Hall 'P 1'
_space_group_name_H-M_alt  'P 1'

loop_
_symmetry_equiv_pos_as_xyz
'x,y,z' 

loop_
_atom_site_label
_atom_site_type_symbol
_atom_site_fract_x
_atom_site_fract_y
_atom_site_fract_z
C          C       0.68322   0.38619   0.00000 
C          C       0.61381   0.29703   0.00000 
C          C       0.70297   0.31678   0.00000 
C          C       0.31678   0.61381   0.00000 
C          C       0.38619   0.70297   0.00000 
C          C       0.29703   0.68322   0.00000 
C          C       0.62960   0.35025   0.00000 
C          C       0.64975   0.27935   0.00000 
C          C       0.72065   0.37040   0.00000 
C          C       0.37040   0.64975   0.00000 
C          C       0.35025   0.72065   0.00000 
C          C       0.27935   0.62960   0.00000 
C          C       0.59369   0.36257   0.00000 
C          C       0.63743   0.23112   0.00000 
C          C       0.76888   0.40631   0.00000 
C          C       0.40631   0.63743   0.00000 
C          C       0.36257   0.76888   0.00000 
C          C       0.23112   0.59369   0.00000 
N          N       0.60054   0.41140   0.00000 
N          N       0.58860   0.18914   0.00000 
N          N       0.81086   0.39946   0.00000 
N          N       0.39946   0.58860   0.00000 
N          N       0.41140   0.81086   0.00000 
N          N       0.18914   0.60054   0.00000 
C          C       0.56137   0.42264   0.00000 
C          C       0.57736   0.13873   0.00000 
C          C       0.86127   0.43863   0.00000 
C          C       0.43863   0.57736   0.00000 
C          C       0.42264   0.86127   0.00000 
C          C       0.13873   0.56137   0.00000 
C          C       0.51151   0.38644   0.00000 
C          C       0.61356   0.12507   0.00000 
C          C       0.87493   0.48849   0.00000 
C          C       0.48849   0.61356   0.00000 
C          C       0.38644   0.87493   0.00000 
C          C       0.12507   0.51151   0.00000 
C          C       0.44914   0.46242   0.00000 
C          C       0.53758   0.98672   0.00000 
C          C       0.01328   0.55086   0.00000 
C          C       0.55086   0.53758   0.00000 
C          C       0.46242   0.01328   0.00000 
C          C       0.98672   0.44914   0.00000 
C          C       0.48770   0.44875   0.00000 
C          C       0.55125   0.03895   0.00000 
C          C       0.96105   0.51230   0.00000 
C          C       0.51230   0.55125   0.00000 
C          C       0.44875   0.96105   0.00000 
C          C       0.03895   0.48770   0.00000 
C          C       0.53730   0.48537   0.00000 
C          C       0.51463   0.05193   0.00000 
C          C       0.94807   0.46270   0.00000 
C          C       0.46270   0.51463   0.00000 
C          C       0.48537   0.94807   0.00000 
C          C       0.05193   0.53730   0.00000 
C          C       0.47530   0.39945   0.00000 
C          C       0.60055   0.07585   0.00000 
C          C       0.92415   0.52470   0.00000 
C          C       0.52470   0.60055   0.00000 
C          C       0.39945   0.92415   0.00000 
C          C       0.07585   0.47530   0.00000 
C          C       0.57357   0.47198   0.00000 
C          C       0.52802   0.10159   0.00000 
C          C       0.89841   0.42643   0.00000 
C          C       0.42643   0.52802   0.00000 
C          C       0.47198   0.89841   0.00000 
C          C       0.10159   0.57357   0.00000 
O          O       0.59386   0.56938   0.00000 
O          O       0.43062   0.02448   0.00000 
O          O       0.97552   0.40614   0.00000 
O          O       0.40614   0.43062   0.00000 
O          O       0.56938   0.97552   0.00000 
O          O       0.02448   0.59386   0.00000 
O          O       0.69750   0.42981   0.00000 
O          O       0.57019   0.26769   0.00000 
O          O       0.73231   0.30250   0.00000 
O          O       0.30250   0.57019   0.00000 
O          O       0.42981   0.73231   0.00000 
O          O       0.26769   0.69750   0.00000 
H          H       0.44344   0.66704   0.00000 
H          H       0.33296   0.77640   0.00000 
H          H       0.22360   0.55656   0.00000 
H          H       0.55656   0.33296   0.00000 
H          H       0.66704   0.22360   0.00000 
H          H       0.77640   0.44344   0.00000 
H          H       0.50067   0.65205   0.00000 
H          H       0.34795   0.84862   0.00000 
H          H       0.15138   0.49933   0.00000 
H          H       0.49933   0.34795   0.00000 
H          H       0.65205   0.15138   0.00000 
H          H       0.84862   0.50067   0.00000 
H          H       0.56264   0.62930   0.00000 
H          H       0.37070   0.93334   0.00000 
H          H       0.06666   0.43736   0.00000 
H          H       0.43736   0.37070   0.00000 
H          H       0.62930   0.06666   0.00000 
H          H       0.93334   0.56264   0.00000 
H          H       0.38826   0.49985   0.00000 
H          H       0.50015   0.88841   0.00000 
H          H       0.11159   0.61174   0.00000 
H          H       0.61174   0.50015   0.00000 
H          H       0.49985   0.11159   0.00000 
H          H       0.88841   0.38826   0.00000 
H          H       0.63516   0.44196   0.00000 
H          H       0.55804   0.19320   0.00000 
H          H       0.80680   0.36484   0.00000 
H          H       0.36484   0.55804   0.00000 
H          H       0.44196   0.80680   0.00000 
H          H       0.19320   0.63516   0.00000 
C          C       0.68322   0.38619   0.50000 
C          C       0.61381   0.29703   0.50000 
C          C       0.70297   0.31678   0.50000 
C          C       0.31678   0.61381   0.50000 
C          C       0.38619   0.70297   0.50000 
C          C       0.29703   0.68322   0.50000 
C          C       0.62960   0.35025   0.50000 
C          C       0.64975   0.27935   0.50000 
C          C       0.72065   0.37040   0.50000 
C          C       0.37040   0.64975   0.50000 
C          C       0.35025   0.72065   0.50000 
C          C       0.27935   0.62960   0.50000 
C          C       0.59369   0.36257   0.50000 
C          C       0.63743   0.23112   0.50000 
C          C       0.76888   0.40631   0.50000 
C          C       0.40631   0.63743   0.50000 
C          C       0.36257   0.76888   0.50000 
C          C       0.23112   0.59369   0.50000 
N          N       0.60054   0.41140   0.50000 
N          N       0.58860   0.18914   0.50000 
N          N       0.81086   0.39946   0.50000 
N          N       0.39946   0.58860   0.50000 
N          N       0.41140   0.81086   0.50000 
N          N       0.18914   0.60054   0.50000 
C          C       0.56137   0.42264   0.50000 
C          C       0.57736   0.13873   0.50000 
C          C       0.86127   0.43863   0.50000 
C          C       0.43863   0.57736   0.50000 
C          C       0.42264   0.86127   0.50000 
C          C       0.13873   0.56137   0.50000 
C          C       0.51151   0.38644   0.50000 
C          C       0.61356   0.12507   0.50000 
C          C       0.87493   0.48849   0.50000 
C          C       0.48849   0.61356   0.50000 
C          C       0.38644   0.87493   0.50000 
C          C       0.12507   0.51151   0.50000 
C          C       0.44914   0.46242   0.50000 
C          C       0.53758   0.98672   0.50000 
C          C       0.01328   0.55086   0.50000 
C          C       0.55086   0.53758   0.50000 
C          C       0.46242   0.01328   0.50000 
C          C       0.98672   0.44914   0.50000 
C          C       0.48770   0.44875   0.50000 
C          C       0.55125   0.03895   0.50000 
C          C       0.96105   0.51230   0.50000 
C          C       0.51230   0.55125   0.50000 
C          C       0.44875   0.96105   0.50000 
C          C       0.03895   0.48770   0.50000 
C          C       0.53730   0.48537   0.50000 
C          C       0.51463   0.05193   0.50000 
C          C       0.94807   0.46270   0.50000 
C          C       0.46270   0.51463   0.50000 
C          C       0.48537   0.94807   0.50000 
C          C       0.05193   0.53730   0.50000 
C          C       0.47530   0.39945   0.50000 
C          C       0.60055   0.07585   0.50000 
C          C       0.92415   0.52470   0.50000 
C          C       0.52470   0.60055   0.50000 
C          C       0.39945   0.92415   0.50000 
C          C       0.07585   0.47530   0.50000 
C          C       0.57357   0.47198   0.50000 
C          C       0.52802   0.10159   0.50000 
C          C       0.89841   0.42643   0.50000 
C          C       0.42643   0.52802   0.50000 
C          C       0.47198   0.89841   0.50000 
C          C       0.10159   0.57357   0.50000 
O          O       0.59386   0.56938   0.50000 
O          O       0.43062   0.02448   0.50000 
O          O       0.97552   0.40614   0.50000 
O          O       0.40614   0.43062   0.50000 
O          O       0.56938   0.97552   0.50000 
O          O       0.02448   0.59386   0.50000 
O          O       0.69750   0.42981   0.50000 
O          O       0.57019   0.26769   0.50000 
O          O       0.73231   0.30250   0.50000 
O          O       0.30250   0.57019   0.50000 
O          O       0.42981   0.73231   0.50000 
O          O       0.26769   0.69750   0.50000 
H          H       0.44344   0.66704   0.50000 
H          H       0.33296   0.77640   0.50000 
H          H       0.22360   0.55656   0.50000 
H          H       0.55656   0.33296   0.50000 
H          H       0.66704   0.22360   0.50000 
H          H       0.77640   0.44344   0.50000 
H          H       0.50067   0.65205   0.50000 
H          H       0.34795   0.84862   0.50000 
H          H       0.15138   0.49933   0.50000 
H          H       0.49933   0.34795   0.50000 
H          H       0.65205   0.15138   0.50000 
H          H       0.84862   0.50067   0.50000 
H          H       0.56264   0.62930   0.50000 
H          H       0.37070   0.93334   0.50000 
H          H       0.06666   0.43736   0.50000 
H          H       0.43736   0.37070   0.50000 
H          H       0.62930   0.06666   0.50000 
H          H       0.93334   0.56264   0.50000 
H          H       0.38826   0.49985   0.50000 
H          H       0.50015   0.88841   0.50000 
H          H       0.11159   0.61174   0.50000 
H          H       0.61174   0.50015   0.50000 
H          H       0.49985   0.11159   0.50000 
H          H       0.88841   0.38826   0.50000 
H          H       0.63516   0.44196   0.50000 
H          H       0.55804   0.19320   0.50000 
H          H       0.80680   0.36484   0.50000 
H          H       0.36484   0.55804   0.50000 
H          H       0.44196   0.80680   0.50000 
H          H       0.19320   0.63516   0.50000 
