data_crystal

_cell_length_a    31.20530
_cell_length_b    31.20530
_cell_length_c    6.87080
_cell_angle_alpha 90.00000
_cell_angle_beta  90.00000
_cell_angle_gamma 120.00000

_space_group_name_Hall 'P 1'
_space_group_name_H-M_alt  'P 1'

loop_
_symmetry_equiv_pos_as_xyz
'x,y,z' 

loop_
_atom_site_label
_atom_site_type_symbol
_atom_site_fract_x
_atom_site_fract_y
_atom_site_fract_z
C          C       0.68360   0.38688   0.00000 
C          C       0.61312   0.29672   0.00000 
C          C       0.70328   0.31640   0.00000 
C          C       0.31640   0.61312   0.00000 
C          C       0.38688   0.70328   0.00000 
C          C       0.29672   0.68360   0.00000 
C          C       0.62929   0.35063   0.00000 
C          C       0.64937   0.27866   0.00000 
C          C       0.72134   0.37071   0.00000 
C          C       0.37071   0.64937   0.00000 
C          C       0.35063   0.72134   0.00000 
C          C       0.27866   0.62929   0.00000 
C          C       0.59307   0.36327   0.00000 
C          C       0.63673   0.22980   0.00000 
C          C       0.77020   0.40693   0.00000 
C          C       0.40693   0.63673   0.00000 
C          C       0.36327   0.77020   0.00000 
C          C       0.22980   0.59307   0.00000 
N          N       0.60019   0.41278   0.00000 
N          N       0.58722   0.18741   0.00000 
N          N       0.81259   0.39981   0.00000 
N          N       0.39981   0.58722   0.00000 
N          N       0.41278   0.81259   0.00000 
N          N       0.18741   0.60019   0.00000 
C          C       0.56067   0.42432   0.00000 
C          C       0.57568   0.13635   0.00000 
C          C       0.86365   0.43933   0.00000 
C          C       0.43933   0.57568   0.00000 
C          C       0.42432   0.86365   0.00000 
C          C       0.13635   0.56067   0.00000 
C          C       0.50997   0.38766   0.00000 
C          C       0.61234   0.12231   0.00000 
C          C       0.87769   0.49003   0.00000 
C          C       0.49003   0.61234   0.00000 
C          C       0.38766   0.87769   0.00000 
C          C       0.12231   0.50997   0.00000 
N          N       0.45098   0.46395   0.00000 
N          N       0.53605   0.98703   0.00000 
N          N       0.01297   0.54902   0.00000 
N          N       0.54902   0.53605   0.00000 
N          N       0.46395   0.01297   0.00000 
N          N       0.98703   0.45098   0.00000 
C          C       0.48636   0.45069   0.00000 
C          C       0.54931   0.03567   0.00000 
C          C       0.96433   0.51364   0.00000 
C          C       0.51364   0.54931   0.00000 
C          C       0.45069   0.96433   0.00000 
C          C       0.03567   0.48636   0.00000 
C          C       0.53662   0.48764   0.00000 
C          C       0.51236   0.04898   0.00000 
C          C       0.95102   0.46338   0.00000 
C          C       0.46338   0.51236   0.00000 
C          C       0.48764   0.95102   0.00000 
C          C       0.04898   0.53662   0.00000 
C          C       0.47329   0.40093   0.00000 
C          C       0.59907   0.07236   0.00000 
C          C       0.92764   0.52671   0.00000 
C          C       0.52671   0.59907   0.00000 
C          C       0.40093   0.92764   0.00000 
C          C       0.07236   0.47329   0.00000 
C          C       0.57329   0.47443   0.00000 
C          C       0.52557   0.09886   0.00000 
C          C       0.90114   0.42671   0.00000 
C          C       0.42671   0.52557   0.00000 
C          C       0.47443   0.90114   0.00000 
C          C       0.09886   0.57329   0.00000 
O          O       0.69820   0.43105   0.00000 
O          O       0.56895   0.26715   0.00000 
O          O       0.73285   0.30180   0.00000 
O          O       0.30180   0.56895   0.00000 
O          O       0.43105   0.73285   0.00000 
O          O       0.26715   0.69820   0.00000 
H          H       0.44457   0.66660   0.00000 
H          H       0.33340   0.77797   0.00000 
H          H       0.22203   0.55543   0.00000 
H          H       0.55543   0.33340   0.00000 
H          H       0.66660   0.22203   0.00000 
H          H       0.77797   0.44457   0.00000 
H          H       0.50245   0.65132   0.00000 
H          H       0.34868   0.85113   0.00000 
H          H       0.14887   0.49755   0.00000 
H          H       0.49755   0.34868   0.00000 
H          H       0.65132   0.14887   0.00000 
H          H       0.85113   0.50245   0.00000 
H          H       0.56533   0.62763   0.00000 
H          H       0.37237   0.93770   0.00000 
H          H       0.06230   0.43467   0.00000 
H          H       0.43467   0.37237   0.00000 
H          H       0.62763   0.06230   0.00000 
H          H       0.93770   0.56533   0.00000 
H          H       0.38820   0.49669   0.00000 
H          H       0.50331   0.89151   0.00000 
H          H       0.10849   0.61180   0.00000 
H          H       0.61180   0.50331   0.00000 
H          H       0.49669   0.10849   0.00000 
H          H       0.89151   0.38820   0.00000 
H          H       0.63527   0.44365   0.00000 
H          H       0.55635   0.19162   0.00000 
H          H       0.80838   0.36473   0.00000 
H          H       0.36473   0.55635   0.00000 
H          H       0.44365   0.80838   0.00000 
H          H       0.19162   0.63527   0.00000 
C          C       0.68360   0.38688   0.50000 
C          C       0.61312   0.29672   0.50000 
C          C       0.70328   0.31640   0.50000 
C          C       0.31640   0.61312   0.50000 
C          C       0.38688   0.70328   0.50000 
C          C       0.29672   0.68360   0.50000 
C          C       0.62929   0.35063   0.50000 
C          C       0.64937   0.27866   0.50000 
C          C       0.72134   0.37071   0.50000 
C          C       0.37071   0.64937   0.50000 
C          C       0.35063   0.72134   0.50000 
C          C       0.27866   0.62929   0.50000 
C          C       0.59307   0.36327   0.50000 
C          C       0.63673   0.22980   0.50000 
C          C       0.77020   0.40693   0.50000 
C          C       0.40693   0.63673   0.50000 
C          C       0.36327   0.77020   0.50000 
C          C       0.22980   0.59307   0.50000 
N          N       0.60019   0.41278   0.50000 
N          N       0.58722   0.18741   0.50000 
N          N       0.81259   0.39981   0.50000 
N          N       0.39981   0.58722   0.50000 
N          N       0.41278   0.81259   0.50000 
N          N       0.18741   0.60019   0.50000 
C          C       0.56067   0.42432   0.50000 
C          C       0.57568   0.13635   0.50000 
C          C       0.86365   0.43933   0.50000 
C          C       0.43933   0.57568   0.50000 
C          C       0.42432   0.86365   0.50000 
C          C       0.13635   0.56067   0.50000 
C          C       0.50997   0.38766   0.50000 
C          C       0.61234   0.12231   0.50000 
C          C       0.87769   0.49003   0.50000 
C          C       0.49003   0.61234   0.50000 
C          C       0.38766   0.87769   0.50000 
C          C       0.12231   0.50997   0.50000 
N          N       0.45098   0.46395   0.50000 
N          N       0.53605   0.98703   0.50000 
N          N       0.01297   0.54902   0.50000 
N          N       0.54902   0.53605   0.50000 
N          N       0.46395   0.01297   0.50000 
N          N       0.98703   0.45098   0.50000 
C          C       0.48636   0.45069   0.50000 
C          C       0.54931   0.03567   0.50000 
C          C       0.96433   0.51364   0.50000 
C          C       0.51364   0.54931   0.50000 
C          C       0.45069   0.96433   0.50000 
C          C       0.03567   0.48636   0.50000 
C          C       0.53662   0.48764   0.50000 
C          C       0.51236   0.04898   0.50000 
C          C       0.95102   0.46338   0.50000 
C          C       0.46338   0.51236   0.50000 
C          C       0.48764   0.95102   0.50000 
C          C       0.04898   0.53662   0.50000 
C          C       0.47329   0.40093   0.50000 
C          C       0.59907   0.07236   0.50000 
C          C       0.92764   0.52671   0.50000 
C          C       0.52671   0.59907   0.50000 
C          C       0.40093   0.92764   0.50000 
C          C       0.07236   0.47329   0.50000 
C          C       0.57329   0.47443   0.50000 
C          C       0.52557   0.09886   0.50000 
C          C       0.90114   0.42671   0.50000 
C          C       0.42671   0.52557   0.50000 
C          C       0.47443   0.90114   0.50000 
C          C       0.09886   0.57329   0.50000 
O          O       0.69820   0.43105   0.50000 
O          O       0.56895   0.26715   0.50000 
O          O       0.73285   0.30180   0.50000 
O          O       0.30180   0.56895   0.50000 
O          O       0.43105   0.73285   0.50000 
O          O       0.26715   0.69820   0.50000 
H          H       0.44457   0.66660   0.50000 
H          H       0.33340   0.77797   0.50000 
H          H       0.22203   0.55543   0.50000 
H          H       0.55543   0.33340   0.50000 
H          H       0.66660   0.22203   0.50000 
H          H       0.77797   0.44457   0.50000 
H          H       0.50245   0.65132   0.50000 
H          H       0.34868   0.85113   0.50000 
H          H       0.14887   0.49755   0.50000 
H          H       0.49755   0.34868   0.50000 
H          H       0.65132   0.14887   0.50000 
H          H       0.85113   0.50245   0.50000 
H          H       0.56533   0.62763   0.50000 
H          H       0.37237   0.93770   0.50000 
H          H       0.06230   0.43467   0.50000 
H          H       0.43467   0.37237   0.50000 
H          H       0.62763   0.06230   0.50000 
H          H       0.93770   0.56533   0.50000 
H          H       0.38820   0.49669   0.50000 
H          H       0.50331   0.89151   0.50000 
H          H       0.10849   0.61180   0.50000 
H          H       0.61180   0.50331   0.50000 
H          H       0.49669   0.10849   0.50000 
H          H       0.89151   0.38820   0.50000 
H          H       0.63527   0.44365   0.50000 
H          H       0.55635   0.19162   0.50000 
H          H       0.80838   0.36473   0.50000 
H          H       0.36473   0.55635   0.50000 
H          H       0.44365   0.80838   0.50000 
H          H       0.19162   0.63527   0.50000 
