data_crystal

_cell_length_a    39.00000
_cell_length_b    39.00000
_cell_length_c    8.14000
_cell_angle_alpha 90.00000
_cell_angle_beta  90.00000
_cell_angle_gamma 120.00000

_space_group_name_Hall 'P 1'
_space_group_name_H-M_alt  'P 1'

loop_
_symmetry_equiv_pos_as_xyz
'x,y,z' 

loop_
_atom_site_label
_atom_site_type_symbol
_atom_site_fract_x
_atom_site_fract_y
_atom_site_fract_z
B          B       0.69405   0.37642   0.00696 
B          B       0.62358   0.31763   0.00696 
B          B       0.68237   0.30595   0.00696 
B          B       0.30595   0.62358   0.00696 
B          B       0.37642   0.68237   0.00696 
B          B       0.31763   0.69405   0.00696 
O          O       0.65078   0.36107   0.00716 
O          O       0.63893   0.28971   0.00716 
O          O       0.71029   0.34922   0.00716 
O          O       0.34922   0.63893   0.00716 
O          O       0.36107   0.71029   0.00716 
O          O       0.28971   0.65078   0.00716 
C          C       0.73695   0.49204   0.46426 
C          C       0.50796   0.24491   0.46426 
C          C       0.75509   0.26305   0.46426 
C          C       0.26305   0.50796   0.46426 
C          C       0.49204   0.75509   0.46426 
C          C       0.24491   0.73695   0.46426 
C          C       0.71022   0.45085   0.48075 
C          C       0.54915   0.25937   0.48075 
C          C       0.74063   0.28978   0.48075 
C          C       0.28978   0.54915   0.48075 
C          C       0.45085   0.74063   0.48075 
C          C       0.25937   0.71022   0.48075 
C          C       0.72428   0.42381   0.00042 
C          C       0.57619   0.30047   0.00042 
C          C       0.69953   0.27572   0.00042 
C          C       0.27572   0.57619   0.00042 
C          C       0.42381   0.69953   0.00042 
C          C       0.30047   0.72428   0.00042 
C          C       0.76580   0.43938   0.01152 
C          C       0.56062   0.32642   0.01152 
C          C       0.67358   0.23420   0.01152 
C          C       0.23420   0.56062   0.01152 
C          C       0.43938   0.67358   0.01152 
C          C       0.32642   0.76580   0.01152 
C          C       0.79289   0.48057   0.49728 
C          C       0.51943   0.31232   0.49728 
C          C       0.68768   0.20711   0.49728 
C          C       0.20711   0.51943   0.49728 
C          C       0.48057   0.68768   0.49728 
C          C       0.31232   0.79289   0.49728 
C          C       0.77790   0.50614   0.46956 
C          C       0.49386   0.27176   0.46956 
C          C       0.72824   0.22210   0.46956 
C          C       0.22210   0.49386   0.46956 
C          C       0.50614   0.72824   0.46956 
C          C       0.27176   0.77790   0.46956 
C          C       0.83655   0.49679   0.01960 
C          C       0.50321   0.33976   0.01960 
C          C       0.66024   0.16345   0.01960 
C          C       0.16345   0.50321   0.01960 
C          C       0.49679   0.66024   0.01960 
C          C       0.33976   0.83655   0.01960 
N          N       0.86300   0.53324   0.48066 
N          N       0.46676   0.32976   0.48066 
N          N       0.67024   0.13700   0.48066 
N          N       0.13700   0.46676   0.48066 
N          N       0.53324   0.67024   0.48066 
N          N       0.32976   0.86300   0.48066 
N          N       0.90389   0.54943   0.01462 
N          N       0.45057   0.35446   0.01462 
N          N       0.64554   0.09611   0.01462 
N          N       0.09611   0.45057   0.01462 
N          N       0.54943   0.64554   0.01462 
N          N       0.35446   0.90389   0.01462 
C          C       0.93246   0.58484   0.44687 
C          C       0.41516   0.34762   0.44687 
C          C       0.65238   0.06754   0.44687 
C          C       0.06754   0.41516   0.44687 
C          C       0.58484   0.65238   0.44687 
C          C       0.34762   0.93246   0.44687 
C          C       0.97642   0.60343   0.48579 
C          C       0.39657   0.37299   0.48579 
C          C       0.62701   0.02358   0.48579 
C          C       0.02358   0.39657   0.48579 
C          C       0.60343   0.62701   0.48579 
C          C       0.37299   0.97642   0.48579 
O          O       0.92195   0.60147   0.34923 
O          O       0.39853   0.32048   0.34923 
O          O       0.67952   0.07805   0.34923 
O          O       0.07805   0.39853   0.34923 
O          O       0.60147   0.67952   0.34923 
O          O       0.32048   0.92195   0.34923 
C          C       0.99221   0.58029   0.04522 
C          C       0.41971   0.41192   0.04522 
C          C       0.58808   0.00779   0.04522 
C          C       0.00779   0.41971   0.04522 
C          C       0.58029   0.58808   0.04522 
C          C       0.41192   0.99221   0.04522 
C          C       0.03319   0.59542   0.06337 
C          C       0.40458   0.43777   0.06337 
C          C       0.56223   0.96681   0.06337 
C          C       0.96681   0.40458   0.06337 
C          C       0.59542   0.56223   0.06337 
C          C       0.43777   0.03319   0.06337 
C          C       0.06031   0.63624   0.03549 
C          C       0.36376   0.42407   0.03549 
C          C       0.57593   0.93969   0.03549 
C          C       0.93969   0.36376   0.03549 
C          C       0.63624   0.57593   0.03549 
C          C       0.42407   0.06031   0.03549 
C          C       0.04489   0.65982   0.47865 
C          C       0.34018   0.38507   0.47865 
C          C       0.61493   0.95511   0.47865 
C          C       0.95511   0.34018   0.47865 
C          C       0.65982   0.61493   0.47865 
C          C       0.38507   0.04489   0.47865 
C          C       0.00387   0.64418   0.45448 
C          C       0.35582   0.35969   0.45448 
C          C       0.64031   0.99613   0.45448 
C          C       0.99613   0.35582   0.45448 
C          C       0.64418   0.64031   0.45448 
C          C       0.35969   0.00387   0.45448 
C          C       0.10371   0.65394   0.07556 
C          C       0.34606   0.44977   0.07556 
C          C       0.55023   0.89629   0.07556 
C          C       0.89629   0.34606   0.07556 
C          C       0.65394   0.55023   0.07556 
C          C       0.44977   0.10371   0.07556 
N          N       0.13337   0.68406   0.48593 
N          N       0.31594   0.44931   0.48593 
N          N       0.55069   0.86663   0.48593 
N          N       0.86663   0.31594   0.48593 
N          N       0.68406   0.55069   0.48593 
N          N       0.44931   0.13337   0.48593 
O          O       0.11299   0.64016   0.18999 
O          O       0.35984   0.47283   0.18999 
O          O       0.52717   0.88701   0.18999 
O          O       0.88701   0.35984   0.18999 
O          O       0.64016   0.52717   0.18999 
O          O       0.47283   0.11299   0.18999 
N          N       0.17341   0.69441   0.01031 
N          N       0.30559   0.47900   0.01031 
N          N       0.52100   0.82659   0.01031 
N          N       0.82659   0.30559   0.01031 
N          N       0.69441   0.52100   0.01031 
N          N       0.47900   0.17341   0.01031 
C          C       0.20240   0.72392   0.43299 
C          C       0.27608   0.47848   0.43299 
C          C       0.52152   0.79760   0.43299 
C          C       0.79760   0.27608   0.43299 
C          C       0.72392   0.52152   0.43299 
C          C       0.47848   0.20240   0.43299 
O          O       0.99178   0.67027   0.39574 
O          O       0.32973   0.32151   0.39574 
O          O       0.67849   0.00822   0.39574 
O          O       0.00822   0.32973   0.39574 
O          O       0.67027   0.67849   0.39574 
O          O       0.32151   0.99178   0.39574 
O          O       0.04561   0.56861   0.11034 
O          O       0.43139   0.47700   0.11034 
O          O       0.52300   0.95439   0.11034 
O          O       0.95439   0.43139   0.11034 
O          O       0.56861   0.52300   0.11034 
O          O       0.47700   0.04561   0.11034 
C          C       0.07490   0.56730   0.00789 
C          C       0.43270   0.50760   0.00789 
C          C       0.49240   0.92510   0.00789 
C          C       0.92510   0.43270   0.00789 
C          C       0.56730   0.49240   0.00789 
C          C       0.50760   0.07490   0.00789 
C          C       0.05949   0.52659   0.44227 
C          C       0.47341   0.53290   0.44227 
C          C       0.46710   0.94051   0.44227 
C          C       0.94051   0.47341   0.44227 
C          C       0.52659   0.46710   0.44227 
C          C       0.53290   0.05949   0.44227 
C          C       0.08216   0.51732   0.35227 
C          C       0.48268   0.56484   0.35227 
C          C       0.43516   0.91784   0.35227 
C          C       0.91784   0.48268   0.35227 
C          C       0.51732   0.43516   0.35227 
C          C       0.56484   0.08216   0.35227 
C          C       0.96902   0.67922   0.00760 
C          C       0.32078   0.28980   0.00760 
C          C       0.71020   0.03098   0.00760 
C          C       0.03098   0.32078   0.00760 
C          C       0.67922   0.71020   0.00760 
C          C       0.28980   0.96902   0.00760 
C          C       0.99293   0.72159   0.06105 
C          C       0.27841   0.27134   0.06105 
C          C       0.72866   0.00707   0.06105 
C          C       0.00707   0.27841   0.06105 
C          C       0.72159   0.72866   0.06105 
C          C       0.27134   0.99293   0.06105 
C          C       0.97687   0.73841   0.15209 
C          C       0.26159   0.23846   0.15209 
C          C       0.76154   0.02313   0.15209 
C          C       0.02313   0.26159   0.15209 
C          C       0.73841   0.76154   0.15209 
C          C       0.23846   0.97687   0.15209 
H          H       0.67869   0.43991   0.47279 
H          H       0.56009   0.23878   0.47279 
H          H       0.76122   0.32131   0.47279 
H          H       0.32131   0.56009   0.47279 
H          H       0.43991   0.76122   0.47279 
H          H       0.23878   0.67869   0.47279 
H          H       0.77722   0.41944   0.03095 
H          H       0.58056   0.35778   0.03095 
H          H       0.64222   0.22278   0.03095 
H          H       0.22278   0.58056   0.03095 
H          H       0.41944   0.64222   0.03095 
H          H       0.35778   0.77722   0.03095 
H          H       0.79827   0.53765   0.45723 
H          H       0.46235   0.26062   0.45723 
H          H       0.73938   0.20173   0.45723 
H          H       0.20173   0.46235   0.45723 
H          H       0.53765   0.73938   0.45723 
H          H       0.26062   0.79827   0.45723 
H          H       0.84622   0.47760   0.07320 
H          H       0.52240   0.36862   0.07320 
H          H       0.63138   0.15378   0.07320 
H          H       0.15378   0.52240   0.07320 
H          H       0.47760   0.63138   0.07320 
H          H       0.36862   0.84622   0.07320 
H          H       0.91209   0.53443   0.09667 
H          H       0.46557   0.37766   0.09667 
H          H       0.62234   0.08791   0.09667 
H          H       0.08791   0.46557   0.09667 
H          H       0.53443   0.62234   0.09667 
H          H       0.37766   0.91209   0.09667 
H          H       0.97303   0.54954   0.07270 
H          H       0.45046   0.42349   0.07270 
H          H       0.57651   0.02697   0.07270 
H          H       0.02697   0.45046   0.07270 
H          H       0.54954   0.57651   0.07270 
H          H       0.42349   0.97303   0.07270 
H          H       0.06458   0.69109   0.45696 
H          H       0.30891   0.37349   0.45696 
H          H       0.62651   0.93542   0.45696 
H          H       0.93542   0.30891   0.45696 
H          H       0.69109   0.62651   0.45696 
H          H       0.37349   0.06458   0.45696 
H          H       0.12621   0.69796   0.39322 
H          H       0.30204   0.42825   0.39322 
H          H       0.57175   0.87379   0.39322 
H          H       0.87379   0.30204   0.39322 
H          H       0.69796   0.57175   0.39322 
H          H       0.42825   0.12621   0.39322 
H          H       0.19587   0.74218   0.35302 
H          H       0.25782   0.45369   0.35302 
H          H       0.54631   0.80413   0.35302 
H          H       0.80413   0.25782   0.35302 
H          H       0.74218   0.54631   0.35302 
H          H       0.45369   0.19587   0.35302 
H          H       0.10169   0.57523   0.08247 
H          H       0.42477   0.52646   0.08247 
H          H       0.47354   0.89831   0.08247 
H          H       0.89831   0.42477   0.08247 
H          H       0.57523   0.47354   0.08247 
H          H       0.52646   0.10169   0.08247 
H          H       0.08333   0.58774   0.40176 
H          H       0.41226   0.49559   0.40176 
H          H       0.50441   0.91667   0.40176 
H          H       0.91667   0.41226   0.40176 
H          H       0.58774   0.50441   0.40176 
H          H       0.49559   0.08333   0.40176 
H          H       0.02933   0.50417   0.46638 
H          H       0.49583   0.52516   0.46638 
H          H       0.47484   0.97067   0.46638 
H          H       0.97067   0.49583   0.46638 
H          H       0.50417   0.47484   0.46638 
H          H       0.52516   0.02933   0.46638 
H          H       0.06973   0.48741   0.30730 
H          H       0.51259   0.58232   0.30730 
H          H       0.41768   0.93027   0.30730 
H          H       0.93027   0.51259   0.30730 
H          H       0.48741   0.41768   0.30730 
H          H       0.58232   0.06973   0.30730 
H          H       0.11274   0.53901   0.32479 
H          H       0.46099   0.57373   0.32479 
H          H       0.42627   0.88726   0.32479 
H          H       0.88726   0.46099   0.32479 
H          H       0.53901   0.42627   0.32479 
H          H       0.57373   0.11274   0.32479 
H          H       0.95935   0.65975   0.11764 
H          H       0.34025   0.29960   0.11764 
H          H       0.70040   0.04065   0.11764 
H          H       0.04065   0.34025   0.11764 
H          H       0.65975   0.70040   0.11764 
H          H       0.29960   0.95935   0.11764 
H          H       0.94201   0.67479   0.44300 
H          H       0.32521   0.26722   0.44300 
H          H       0.73278   0.05799   0.44300 
H          H       0.05799   0.32521   0.44300 
H          H       0.67479   0.73278   0.44300 
H          H       0.26722   0.94201   0.44300 
H          H       0.02406   0.73872   0.02830 
H          H       0.26128   0.28534   0.02830 
H          H       0.71466   0.97594   0.02830 
H          H       0.97594   0.26128   0.02830 
H          H       0.73872   0.71466   0.02830 
H          H       0.28534   0.02406   0.02830 
H          H       0.94596   0.72189   0.18843 
H          H       0.27811   0.22407   0.18843 
H          H       0.77593   0.05404   0.18843 
H          H       0.05404   0.27811   0.18843 
H          H       0.72189   0.77593   0.18843 
H          H       0.22407   0.94596   0.18843 
H          H       0.99478   0.76896   0.19147 
H          H       0.23104   0.22582   0.19147 
H          H       0.77418   0.00522   0.19147 
H          H       0.00522   0.23104   0.19147 
H          H       0.76896   0.77418   0.19147 
H          H       0.22582   0.99478   0.19147 
B          B       0.69405   0.37642   0.50696 
B          B       0.62358   0.31763   0.50696 
B          B       0.68237   0.30595   0.50696 
B          B       0.30595   0.62358   0.50696 
B          B       0.37642   0.68237   0.50696 
B          B       0.31763   0.69405   0.50696 
O          O       0.65078   0.36107   0.50716 
O          O       0.63893   0.28971   0.50716 
O          O       0.71029   0.34922   0.50716 
O          O       0.34922   0.63893   0.50716 
O          O       0.36107   0.71029   0.50716 
O          O       0.28971   0.65078   0.50716 
C          C       0.73695   0.49204   0.96426 
C          C       0.50796   0.24491   0.96426 
C          C       0.75509   0.26305   0.96426 
C          C       0.26305   0.50796   0.96426 
C          C       0.49204   0.75509   0.96426 
C          C       0.24491   0.73695   0.96426 
C          C       0.71022   0.45085   0.98076 
C          C       0.54915   0.25937   0.98076 
C          C       0.74063   0.28978   0.98076 
C          C       0.28978   0.54915   0.98076 
C          C       0.45085   0.74063   0.98076 
C          C       0.25937   0.71022   0.98076 
C          C       0.72428   0.42381   0.50042 
C          C       0.57619   0.30047   0.50042 
C          C       0.69953   0.27572   0.50042 
C          C       0.27572   0.57619   0.50042 
C          C       0.42381   0.69953   0.50042 
C          C       0.30047   0.72428   0.50042 
C          C       0.76580   0.43938   0.51152 
C          C       0.56062   0.32642   0.51152 
C          C       0.67358   0.23420   0.51152 
C          C       0.23420   0.56062   0.51152 
C          C       0.43938   0.67358   0.51152 
C          C       0.32642   0.76580   0.51152 
C          C       0.79289   0.48057   0.99728 
C          C       0.51943   0.31232   0.99728 
C          C       0.68768   0.20711   0.99728 
C          C       0.20711   0.51943   0.99728 
C          C       0.48057   0.68768   0.99728 
C          C       0.31232   0.79289   0.99728 
C          C       0.77790   0.50614   0.96957 
C          C       0.49386   0.27176   0.96957 
C          C       0.72824   0.22210   0.96957 
C          C       0.22210   0.49386   0.96957 
C          C       0.50614   0.72824   0.96957 
C          C       0.27176   0.77790   0.96957 
C          C       0.83655   0.49679   0.51960 
C          C       0.50321   0.33976   0.51960 
C          C       0.66024   0.16345   0.51960 
C          C       0.16345   0.50321   0.51960 
C          C       0.49679   0.66024   0.51960 
C          C       0.33976   0.83655   0.51960 
N          N       0.86300   0.53324   0.98066 
N          N       0.46676   0.32976   0.98066 
N          N       0.67024   0.13700   0.98066 
N          N       0.13700   0.46676   0.98066 
N          N       0.53324   0.67024   0.98066 
N          N       0.32976   0.86300   0.98066 
N          N       0.90389   0.54943   0.51462 
N          N       0.45057   0.35446   0.51462 
N          N       0.64554   0.09611   0.51462 
N          N       0.09611   0.45057   0.51462 
N          N       0.54943   0.64554   0.51462 
N          N       0.35446   0.90389   0.51462 
C          C       0.93246   0.58484   0.94686 
C          C       0.41516   0.34762   0.94686 
C          C       0.65238   0.06754   0.94686 
C          C       0.06754   0.41516   0.94686 
C          C       0.58484   0.65238   0.94686 
C          C       0.34762   0.93246   0.94686 
C          C       0.97642   0.60343   0.98579 
C          C       0.39657   0.37299   0.98579 
C          C       0.62701   0.02358   0.98579 
C          C       0.02358   0.39657   0.98579 
C          C       0.60343   0.62701   0.98579 
C          C       0.37299   0.97642   0.98579 
O          O       0.92195   0.60147   0.84922 
O          O       0.39853   0.32048   0.84922 
O          O       0.67952   0.07805   0.84922 
O          O       0.07805   0.39853   0.84922 
O          O       0.60147   0.67952   0.84922 
O          O       0.32048   0.92195   0.84922 
C          C       0.99221   0.58029   0.54522 
C          C       0.41971   0.41192   0.54522 
C          C       0.58808   0.00779   0.54522 
C          C       0.00779   0.41971   0.54522 
C          C       0.58029   0.58808   0.54522 
C          C       0.41192   0.99221   0.54522 
C          C       0.03319   0.59542   0.56337 
C          C       0.40458   0.43777   0.56337 
C          C       0.56223   0.96681   0.56337 
C          C       0.96681   0.40458   0.56337 
C          C       0.59542   0.56223   0.56337 
C          C       0.43777   0.03319   0.56337 
C          C       0.06031   0.63624   0.53549 
C          C       0.36376   0.42407   0.53549 
C          C       0.57593   0.93969   0.53549 
C          C       0.93969   0.36376   0.53549 
C          C       0.63624   0.57593   0.53549 
C          C       0.42407   0.06031   0.53549 
C          C       0.04489   0.65982   0.97865 
C          C       0.34018   0.38507   0.97865 
C          C       0.61493   0.95511   0.97865 
C          C       0.95511   0.34018   0.97865 
C          C       0.65982   0.61493   0.97865 
C          C       0.38507   0.04489   0.97865 
C          C       0.00387   0.64418   0.95448 
C          C       0.35582   0.35969   0.95448 
C          C       0.64031   0.99613   0.95448 
C          C       0.99613   0.35582   0.95448 
C          C       0.64418   0.64031   0.95448 
C          C       0.35969   0.00387   0.95448 
C          C       0.10371   0.65394   0.57556 
C          C       0.34606   0.44977   0.57556 
C          C       0.55023   0.89629   0.57556 
C          C       0.89629   0.34606   0.57556 
C          C       0.65394   0.55023   0.57556 
C          C       0.44977   0.10371   0.57556 
N          N       0.13337   0.68406   0.98593 
N          N       0.31594   0.44931   0.98593 
N          N       0.55069   0.86663   0.98593 
N          N       0.86663   0.31594   0.98593 
N          N       0.68406   0.55069   0.98593 
N          N       0.44931   0.13337   0.98593 
O          O       0.11299   0.64016   0.68999 
O          O       0.35984   0.47283   0.68999 
O          O       0.52717   0.88701   0.68999 
O          O       0.88701   0.35984   0.68999 
O          O       0.64016   0.52717   0.68999 
O          O       0.47283   0.11299   0.68999 
N          N       0.17341   0.69441   0.51031 
N          N       0.30559   0.47900   0.51031 
N          N       0.52100   0.82659   0.51031 
N          N       0.82659   0.30559   0.51031 
N          N       0.69441   0.52100   0.51031 
N          N       0.47900   0.17341   0.51031 
C          C       0.20240   0.72392   0.93299 
C          C       0.27608   0.47848   0.93299 
C          C       0.52152   0.79760   0.93299 
C          C       0.79760   0.27608   0.93299 
C          C       0.72392   0.52152   0.93299 
C          C       0.47848   0.20240   0.93299 
O          O       0.99178   0.67027   0.89574 
O          O       0.32973   0.32151   0.89574 
O          O       0.67849   0.00822   0.89574 
O          O       0.00822   0.32973   0.89574 
O          O       0.67027   0.67849   0.89574 
O          O       0.32151   0.99178   0.89574 
O          O       0.04561   0.56861   0.61034 
O          O       0.43139   0.47700   0.61034 
O          O       0.52300   0.95439   0.61034 
O          O       0.95439   0.43139   0.61034 
O          O       0.56861   0.52300   0.61034 
O          O       0.47700   0.04561   0.61034 
C          C       0.07490   0.56730   0.50789 
C          C       0.43270   0.50760   0.50789 
C          C       0.49240   0.92510   0.50789 
C          C       0.92510   0.43270   0.50789 
C          C       0.56730   0.49240   0.50789 
C          C       0.50760   0.07490   0.50789 
C          C       0.05949   0.52659   0.94228 
C          C       0.47341   0.53290   0.94228 
C          C       0.46710   0.94051   0.94228 
C          C       0.94051   0.47341   0.94228 
C          C       0.52659   0.46710   0.94228 
C          C       0.53290   0.05949   0.94228 
C          C       0.08216   0.51732   0.85227 
C          C       0.48268   0.56484   0.85227 
C          C       0.43516   0.91784   0.85227 
C          C       0.91784   0.48268   0.85227 
C          C       0.51732   0.43516   0.85227 
C          C       0.56484   0.08216   0.85227 
C          C       0.96902   0.67922   0.50760 
C          C       0.32078   0.28980   0.50760 
C          C       0.71020   0.03098   0.50760 
C          C       0.03098   0.32078   0.50760 
C          C       0.67922   0.71020   0.50760 
C          C       0.28980   0.96902   0.50760 
C          C       0.99293   0.72159   0.56105 
C          C       0.27841   0.27134   0.56105 
C          C       0.72866   0.00707   0.56105 
C          C       0.00707   0.27841   0.56105 
C          C       0.72159   0.72866   0.56105 
C          C       0.27134   0.99293   0.56105 
C          C       0.97687   0.73841   0.65209 
C          C       0.26159   0.23846   0.65209 
C          C       0.76154   0.02313   0.65209 
C          C       0.02313   0.26159   0.65209 
C          C       0.73841   0.76154   0.65209 
C          C       0.23846   0.97687   0.65209 
H          H       0.67869   0.43991   0.97279 
H          H       0.56009   0.23878   0.97279 
H          H       0.76122   0.32131   0.97279 
H          H       0.32131   0.56009   0.97279 
H          H       0.43991   0.76122   0.97279 
H          H       0.23878   0.67869   0.97279 
H          H       0.77722   0.41944   0.53095 
H          H       0.58056   0.35778   0.53095 
H          H       0.64222   0.22278   0.53095 
H          H       0.22278   0.58056   0.53095 
H          H       0.41944   0.64222   0.53095 
H          H       0.35778   0.77722   0.53095 
H          H       0.79827   0.53765   0.95723 
H          H       0.46235   0.26062   0.95723 
H          H       0.73938   0.20173   0.95723 
H          H       0.20173   0.46235   0.95723 
H          H       0.53765   0.73938   0.95723 
H          H       0.26062   0.79827   0.95723 
H          H       0.84622   0.47760   0.57319 
H          H       0.52240   0.36862   0.57319 
H          H       0.63138   0.15378   0.57319 
H          H       0.15378   0.52240   0.57319 
H          H       0.47760   0.63138   0.57319 
H          H       0.36862   0.84622   0.57319 
H          H       0.91209   0.53443   0.59667 
H          H       0.46557   0.37766   0.59667 
H          H       0.62234   0.08791   0.59667 
H          H       0.08791   0.46557   0.59667 
H          H       0.53443   0.62234   0.59667 
H          H       0.37766   0.91209   0.59667 
H          H       0.97303   0.54954   0.57270 
H          H       0.45046   0.42349   0.57270 
H          H       0.57651   0.02697   0.57270 
H          H       0.02697   0.45046   0.57270 
H          H       0.54954   0.57651   0.57270 
H          H       0.42349   0.97303   0.57270 
H          H       0.06458   0.69109   0.95696 
H          H       0.30891   0.37349   0.95696 
H          H       0.62651   0.93542   0.95696 
H          H       0.93542   0.30891   0.95696 
H          H       0.69109   0.62651   0.95696 
H          H       0.37349   0.06458   0.95696 
H          H       0.12621   0.69796   0.89323 
H          H       0.30204   0.42825   0.89323 
H          H       0.57175   0.87379   0.89323 
H          H       0.87379   0.30204   0.89323 
H          H       0.69796   0.57175   0.89323 
H          H       0.42825   0.12621   0.89323 
H          H       0.19587   0.74218   0.85302 
H          H       0.25782   0.45369   0.85302 
H          H       0.54631   0.80413   0.85302 
H          H       0.80413   0.25782   0.85302 
H          H       0.74218   0.54631   0.85302 
H          H       0.45369   0.19587   0.85302 
H          H       0.10169   0.57523   0.58247 
H          H       0.42477   0.52646   0.58247 
H          H       0.47354   0.89831   0.58247 
H          H       0.89831   0.42477   0.58247 
H          H       0.57523   0.47354   0.58247 
H          H       0.52646   0.10169   0.58247 
H          H       0.08333   0.58774   0.90176 
H          H       0.41226   0.49559   0.90176 
H          H       0.50441   0.91667   0.90176 
H          H       0.91667   0.41226   0.90176 
H          H       0.58774   0.50441   0.90176 
H          H       0.49559   0.08333   0.90176 
H          H       0.02933   0.50417   0.96639 
H          H       0.49583   0.52516   0.96639 
H          H       0.47484   0.97067   0.96639 
H          H       0.97067   0.49583   0.96639 
H          H       0.50417   0.47484   0.96639 
H          H       0.52516   0.02933   0.96639 
H          H       0.06973   0.48741   0.80730 
H          H       0.51259   0.58232   0.80730 
H          H       0.41768   0.93027   0.80730 
H          H       0.93027   0.51259   0.80730 
H          H       0.48741   0.41768   0.80730 
H          H       0.58232   0.06973   0.80730 
H          H       0.11274   0.53901   0.82480 
H          H       0.46099   0.57373   0.82480 
H          H       0.42627   0.88726   0.82480 
H          H       0.88726   0.46099   0.82480 
H          H       0.53901   0.42627   0.82480 
H          H       0.57373   0.11274   0.82480 
H          H       0.95935   0.65975   0.61764 
H          H       0.34025   0.29960   0.61764 
H          H       0.70040   0.04065   0.61764 
H          H       0.04065   0.34025   0.61764 
H          H       0.65975   0.70040   0.61764 
H          H       0.29960   0.95935   0.61764 
H          H       0.94201   0.67479   0.94300 
H          H       0.32521   0.26722   0.94300 
H          H       0.73278   0.05799   0.94300 
H          H       0.05799   0.32521   0.94300 
H          H       0.67479   0.73278   0.94300 
H          H       0.26722   0.94201   0.94300 
H          H       0.02406   0.73872   0.52830 
H          H       0.26128   0.28534   0.52830 
H          H       0.71466   0.97594   0.52830 
H          H       0.97594   0.26128   0.52830 
H          H       0.73872   0.71466   0.52830 
H          H       0.28534   0.02406   0.52830 
H          H       0.94596   0.72189   0.68843 
H          H       0.27811   0.22407   0.68843 
H          H       0.77593   0.05404   0.68843 
H          H       0.05404   0.27811   0.68843 
H          H       0.72189   0.77593   0.68843 
H          H       0.22407   0.94596   0.68843 
H          H       0.99478   0.76896   0.69147 
H          H       0.23104   0.22582   0.69147 
H          H       0.77418   0.00522   0.69147 
H          H       0.00522   0.23104   0.69147 
H          H       0.76896   0.77418   0.69147 
H          H       0.22582   0.99478   0.69147 
