data_crystal

_cell_length_a    38.55000
_cell_length_b    38.55000
_cell_length_c    8.14000
_cell_angle_alpha 90.00000
_cell_angle_beta  90.00000
_cell_angle_gamma 120.00000

_space_group_name_Hall 'P 1'
_space_group_name_H-M_alt  'P 1'

loop_
_symmetry_equiv_pos_as_xyz
'x,y,z' 

loop_
_atom_site_label
_atom_site_type_symbol
_atom_site_fract_x
_atom_site_fract_y
_atom_site_fract_z
B          B       0.69765   0.37610   0.09335 
B          B       0.62390   0.32155   0.09335 
B          B       0.67845   0.30235   0.09335 
B          B       0.30235   0.62390   0.09335 
B          B       0.37610   0.67845   0.09335 
B          B       0.32155   0.69765   0.09335 
O          O       0.65455   0.36499   0.09160 
O          O       0.63501   0.28956   0.09160 
O          O       0.71044   0.34545   0.09160 
O          O       0.34545   0.63501   0.09160 
O          O       0.36499   0.71044   0.09160 
O          O       0.28956   0.65455   0.09160 
C          C       0.74773   0.49178   0.18403 
C          C       0.50822   0.25595   0.18403 
C          C       0.74405   0.25227   0.18403 
C          C       0.25227   0.50822   0.18403 
C          C       0.49178   0.74405   0.18403 
C          C       0.25595   0.74773   0.18403 
C          C       0.71877   0.45075   0.15609 
C          C       0.54925   0.26802   0.15609 
C          C       0.73198   0.28123   0.15609 
C          C       0.28123   0.54925   0.15609 
C          C       0.45075   0.73198   0.15609 
C          C       0.26802   0.71877   0.15609 
C          C       0.73103   0.42257   0.11321 
C          C       0.57743   0.30846   0.11321 
C          C       0.69154   0.26897   0.11321 
C          C       0.26897   0.57743   0.11321 
C          C       0.42257   0.69154   0.11321 
C          C       0.30846   0.73103   0.11321 
C          C       0.77289   0.43646   0.09071 
C          C       0.56354   0.33643   0.09071 
C          C       0.66357   0.22711   0.09071 
C          C       0.22711   0.56354   0.09071 
C          C       0.43646   0.66357   0.09071 
C          C       0.33643   0.77289   0.09071 
C          C       0.80203   0.47785   0.11574 
C          C       0.52215   0.32418   0.11574 
C          C       0.67582   0.19797   0.11574 
C          C       0.19797   0.52215   0.11574 
C          C       0.47785   0.67582   0.11574 
C          C       0.32418   0.80203   0.11574 
C          C       0.78900   0.50480   0.16787 
C          C       0.49520   0.28420   0.16787 
C          C       0.71580   0.21100   0.16787 
C          C       0.21100   0.49520   0.16787 
C          C       0.50480   0.71580   0.16787 
C          C       0.28420   0.78900   0.16787 
C          C       0.84571   0.49393   0.07873 
C          C       0.50607   0.35178   0.07873 
C          C       0.64822   0.15429   0.07873 
C          C       0.15429   0.50607   0.07873 
C          C       0.49393   0.64822   0.07873 
C          C       0.35178   0.84571   0.07873 
N          N       0.87226   0.53095   0.12167 
N          N       0.46905   0.34131   0.12167 
N          N       0.65869   0.12774   0.12167 
N          N       0.12774   0.46905   0.12167 
N          N       0.53095   0.65869   0.12167 
N          N       0.34131   0.87226   0.12167 
N          N       0.91375   0.54990   0.08007 
N          N       0.45010   0.36385   0.08007 
N          N       0.63615   0.08625   0.08007 
N          N       0.08625   0.45010   0.08007 
N          N       0.54990   0.63615   0.08007 
N          N       0.36385   0.91375   0.08007 
C          C       0.94104   0.58529   0.15892 
C          C       0.41471   0.35575   0.15892 
C          C       0.64425   0.05896   0.15892 
C          C       0.05896   0.41471   0.15892 
C          C       0.58529   0.64425   0.15892 
C          C       0.35575   0.94104   0.15892 
C          C       0.98567   0.60553   0.12546 
C          C       0.39447   0.38014   0.12546 
C          C       0.61986   0.01433   0.12546 
C          C       0.01433   0.39447   0.12546 
C          C       0.60553   0.61986   0.12546 
C          C       0.38014   0.98567   0.12546 
O          O       0.92854   0.60003   0.26221 
O          O       0.39997   0.32851   0.26221 
O          O       0.67149   0.07146   0.26221 
O          O       0.07146   0.39997   0.26221 
O          O       0.60003   0.67149   0.26221 
O          O       0.32851   0.92854   0.26221 
C          C       0.00306   0.58168   0.08212 
C          C       0.41832   0.42138   0.08212 
C          C       0.57862   0.99694   0.08212 
C          C       0.99694   0.41832   0.08212 
C          C       0.58168   0.57862   0.08212 
C          C       0.42138   0.00306   0.08212 
C          C       0.04509   0.59809   0.07295 
C          C       0.40191   0.44700   0.07295 
C          C       0.55300   0.95491   0.07295 
C          C       0.95491   0.40191   0.07295 
C          C       0.59809   0.55300   0.07295 
C          C       0.44700   0.04509   0.07295 
C          C       0.07126   0.64046   0.09433 
C          C       0.35954   0.43080   0.09433 
C          C       0.56920   0.92874   0.09433 
C          C       0.92874   0.35954   0.09433 
C          C       0.64046   0.56920   0.09433 
C          C       0.43080   0.07126   0.09433 
C          C       0.05417   0.66469   0.13497 
C          C       0.33531   0.38948   0.13497 
C          C       0.61052   0.94583   0.13497 
C          C       0.94583   0.33531   0.13497 
C          C       0.66469   0.61052   0.13497 
C          C       0.38948   0.05417   0.13497 
C          C       0.01201   0.64790   0.15083 
C          C       0.35210   0.36411   0.15083 
C          C       0.63589   0.98799   0.15083 
C          C       0.98799   0.35210   0.15083 
C          C       0.64790   0.63589   0.15083 
C          C       0.36411   0.01201   0.15083 
C          C       0.11579   0.65935   0.06776 
C          C       0.34065   0.45644   0.06776 
C          C       0.54356   0.88421   0.06776 
C          C       0.88421   0.34065   0.06776 
C          C       0.65935   0.54356   0.06776 
C          C       0.45644   0.11579   0.06776 
N          N       0.14335   0.69156   0.16072 
N          N       0.30844   0.45179   0.16072 
N          N       0.54821   0.85665   0.16072 
N          N       0.85665   0.30844   0.16072 
N          N       0.69156   0.54821   0.16072 
N          N       0.45179   0.14335   0.16072 
O          O       0.12830   0.64513   0.46248 
O          O       0.35487   0.48317   0.46248 
O          O       0.51683   0.87170   0.46248 
O          O       0.87170   0.35487   0.46248 
O          O       0.64513   0.51683   0.46248 
O          O       0.48317   0.12830   0.46248 
N          N       0.18471   0.70371   0.14468 
N          N       0.29629   0.48100   0.14468 
N          N       0.51900   0.81529   0.14468 
N          N       0.81529   0.29629   0.14468 
N          N       0.70371   0.51900   0.14468 
N          N       0.48100   0.18471   0.14468 
C          C       0.21329   0.73548   0.21822 
C          C       0.26452   0.47781   0.21822 
C          C       0.52219   0.78671   0.21822 
C          C       0.78671   0.26452   0.21822 
C          C       0.73548   0.52219   0.21822 
C          C       0.47781   0.21329   0.21822 
O          O       0.99801   0.67420   0.20100 
O          O       0.32580   0.32381   0.20100 
O          O       0.67619   0.00199   0.20100 
O          O       0.00199   0.32580   0.20100 
O          O       0.67420   0.67619   0.20100 
O          O       0.32381   0.99801   0.20100 
O          O       0.05939   0.57096   0.04166 
O          O       0.42904   0.48843   0.04166 
O          O       0.51157   0.94061   0.04166 
O          O       0.94061   0.42904   0.04166 
O          O       0.57096   0.51157   0.04166 
O          O       0.48843   0.05939   0.04166 
C          C       0.97152   0.67897   0.08781 
C          C       0.32103   0.29255   0.08781 
C          C       0.70745   0.02848   0.08781 
C          C       0.02848   0.32103   0.08781 
C          C       0.67897   0.70745   0.08781 
C          C       0.29255   0.97152   0.08781 
C          C       0.99214   0.72274   0.02649 
C          C       0.27726   0.26940   0.02649 
C          C       0.73060   0.00786   0.02649 
C          C       0.00786   0.27726   0.02649 
C          C       0.72274   0.73060   0.02649 
C          C       0.26940   0.99214   0.02649 
C          C       0.08752   0.57075   0.16033 
C          C       0.42925   0.51677   0.16033 
C          C       0.48323   0.91248   0.16033 
C          C       0.91248   0.42925   0.16033 
C          C       0.57075   0.48323   0.16033 
C          C       0.51677   0.08752   0.16033 
C          C       0.07069   0.52858   0.23342 
C          C       0.47142   0.54211   0.23342 
C          C       0.45789   0.92931   0.23342 
C          C       0.92931   0.47142   0.23342 
C          C       0.52858   0.45789   0.23342 
C          C       0.54211   0.07069   0.23342 
H          H       0.68674   0.44088   0.17046 
H          H       0.55912   0.24586   0.17046 
H          H       0.75414   0.31326   0.17046 
H          H       0.31326   0.55912   0.17046 
H          H       0.44088   0.75414   0.17046 
H          H       0.24586   0.68674   0.17046 
H          H       0.78280   0.41540   0.05241 
H          H       0.58460   0.36740   0.05241 
H          H       0.63260   0.21720   0.05241 
H          H       0.21720   0.58460   0.05241 
H          H       0.41540   0.63260   0.05241 
H          H       0.36740   0.78280   0.05241 
H          H       0.81086   0.53675   0.18680 
H          H       0.46325   0.27411   0.18680 
H          H       0.72589   0.18914   0.18680 
H          H       0.18914   0.46325   0.18680 
H          H       0.53675   0.72589   0.18680 
H          H       0.27411   0.81086   0.18680 
H          H       0.85525   0.47523   0.01233 
H          H       0.52477   0.38002   0.01233 
H          H       0.61998   0.14475   0.01233 
H          H       0.14475   0.52477   0.01233 
H          H       0.47523   0.61998   0.01233 
H          H       0.38002   0.85525   0.01233 
H          H       0.92313   0.53785   0.48388 
H          H       0.46215   0.38528   0.48388 
H          H       0.61472   0.07687   0.48388 
H          H       0.07687   0.46215   0.48388 
H          H       0.53785   0.61472   0.48388 
H          H       0.38528   0.92313   0.48388 
H          H       0.98446   0.54941   0.06358 
H          H       0.45059   0.43505   0.06358 
H          H       0.56495   0.01554   0.06358 
H          H       0.01554   0.45059   0.06358 
H          H       0.54941   0.56495   0.06358 
H          H       0.43505   0.98446   0.06358 
H          H       0.07346   0.69720   0.15139 
H          H       0.30280   0.37626   0.15139 
H          H       0.62374   0.92654   0.15139 
H          H       0.92654   0.30280   0.15139 
H          H       0.69720   0.62374   0.15139 
H          H       0.37626   0.07346   0.15139 
H          H       0.13397   0.70544   0.24916 
H          H       0.29456   0.42853   0.24916 
H          H       0.57147   0.86603   0.24916 
H          H       0.86603   0.29456   0.24916 
H          H       0.70544   0.57147   0.24916 
H          H       0.42853   0.13397   0.24916 
H          H       0.20606   0.75520   0.29059 
H          H       0.24480   0.45086   0.29059 
H          H       0.54914   0.79394   0.29059 
H          H       0.79394   0.24480   0.29059 
H          H       0.75520   0.54914   0.29059 
H          H       0.45086   0.20606   0.29059 
H          H       0.94318   0.67211   0.15499 
H          H       0.32789   0.27107   0.15499 
H          H       0.72893   0.05682   0.15499 
H          H       0.05682   0.32789   0.15499 
H          H       0.67211   0.72893   0.15499 
H          H       0.27107   0.94318   0.15499 
H          H       0.96285   0.65820   0.47892 
H          H       0.34180   0.30465   0.47892 
H          H       0.69535   0.03715   0.47892 
H          H       0.03715   0.34180   0.47892 
H          H       0.65820   0.69535   0.47892 
H          H       0.30465   0.96285   0.47892 
H          H       0.97150   0.72675   0.44012 
H          H       0.27325   0.24475   0.44012 
H          H       0.75525   0.02850   0.44012 
H          H       0.02850   0.27325   0.44012 
H          H       0.72675   0.75525   0.44012 
H          H       0.24475   0.97150   0.44012 
H          H       0.02069   0.73031   0.45938 
H          H       0.26969   0.29038   0.45938 
H          H       0.70962   0.97931   0.45938 
H          H       0.97931   0.26969   0.45938 
H          H       0.73031   0.70962   0.45938 
H          H       0.29038   0.02069   0.45938 
H          H       0.99952   0.74380   0.13397 
H          H       0.25620   0.25572   0.13397 
H          H       0.74428   0.00048   0.13397 
H          H       0.00048   0.25620   0.13397 
H          H       0.74380   0.74428   0.13397 
H          H       0.25572   0.99952   0.13397 
H          H       0.09381   0.59227   0.26364 
H          H       0.40773   0.50154   0.26364 
H          H       0.49846   0.90619   0.26364 
H          H       0.90619   0.40773   0.26364 
H          H       0.59227   0.49846   0.26364 
H          H       0.50154   0.09381   0.26364 
H          H       0.11670   0.57922   0.09659 
H          H       0.42078   0.53748   0.09659 
H          H       0.46252   0.88330   0.09659 
H          H       0.88330   0.42078   0.09659 
H          H       0.57922   0.46252   0.09659 
H          H       0.53748   0.11670   0.09659 
H          H       0.06896   0.50807   0.13299 
H          H       0.49193   0.56089   0.13299 
H          H       0.43911   0.93104   0.13299 
H          H       0.93104   0.49193   0.13299 
H          H       0.50807   0.43911   0.13299 
H          H       0.56089   0.06896   0.13299 
H          H       0.03992   0.51761   0.28688 
H          H       0.48239   0.52231   0.28688 
H          H       0.47769   0.96008   0.28688 
H          H       0.96008   0.48239   0.28688 
H          H       0.51761   0.47769   0.28688 
H          H       0.52231   0.03992   0.28688 
H          H       0.09142   0.52887   0.33186 
H          H       0.47113   0.56255   0.33186 
H          H       0.43745   0.90858   0.33186 
H          H       0.90858   0.47113   0.33186 
H          H       0.52887   0.43745   0.33186 
H          H       0.56255   0.09142   0.33186 
B          B       0.69765   0.37610   0.59335 
B          B       0.62390   0.32155   0.59335 
B          B       0.67845   0.30235   0.59335 
B          B       0.30235   0.62390   0.59335 
B          B       0.37610   0.67845   0.59335 
B          B       0.32155   0.69765   0.59335 
O          O       0.65455   0.36499   0.59160 
O          O       0.63501   0.28956   0.59160 
O          O       0.71044   0.34545   0.59160 
O          O       0.34545   0.63501   0.59160 
O          O       0.36499   0.71044   0.59160 
O          O       0.28956   0.65455   0.59160 
C          C       0.74773   0.49178   0.68403 
C          C       0.50822   0.25595   0.68403 
C          C       0.74405   0.25227   0.68403 
C          C       0.25227   0.50822   0.68403 
C          C       0.49178   0.74405   0.68403 
C          C       0.25595   0.74773   0.68403 
C          C       0.71877   0.45075   0.65608 
C          C       0.54925   0.26802   0.65608 
C          C       0.73198   0.28123   0.65608 
C          C       0.28123   0.54925   0.65608 
C          C       0.45075   0.73198   0.65608 
C          C       0.26802   0.71877   0.65608 
C          C       0.73103   0.42257   0.61321 
C          C       0.57743   0.30846   0.61321 
C          C       0.69154   0.26897   0.61321 
C          C       0.26897   0.57743   0.61321 
C          C       0.42257   0.69154   0.61321 
C          C       0.30846   0.73103   0.61321 
C          C       0.77289   0.43646   0.59070 
C          C       0.56354   0.33643   0.59070 
C          C       0.66357   0.22711   0.59070 
C          C       0.22711   0.56354   0.59070 
C          C       0.43646   0.66357   0.59070 
C          C       0.33643   0.77289   0.59070 
C          C       0.80203   0.47785   0.61573 
C          C       0.52215   0.32418   0.61573 
C          C       0.67582   0.19797   0.61573 
C          C       0.19797   0.52215   0.61573 
C          C       0.47785   0.67582   0.61573 
C          C       0.32418   0.80203   0.61573 
C          C       0.78900   0.50480   0.66787 
C          C       0.49520   0.28420   0.66787 
C          C       0.71580   0.21100   0.66787 
C          C       0.21100   0.49520   0.66787 
C          C       0.50480   0.71580   0.66787 
C          C       0.28420   0.78900   0.66787 
C          C       0.84571   0.49393   0.57873 
C          C       0.50607   0.35178   0.57873 
C          C       0.64822   0.15429   0.57873 
C          C       0.15429   0.50607   0.57873 
C          C       0.49393   0.64822   0.57873 
C          C       0.35178   0.84571   0.57873 
N          N       0.87226   0.53095   0.62167 
N          N       0.46905   0.34131   0.62167 
N          N       0.65869   0.12774   0.62167 
N          N       0.12774   0.46905   0.62167 
N          N       0.53095   0.65869   0.62167 
N          N       0.34131   0.87226   0.62167 
N          N       0.91375   0.54990   0.58007 
N          N       0.45010   0.36385   0.58007 
N          N       0.63615   0.08625   0.58007 
N          N       0.08625   0.45010   0.58007 
N          N       0.54990   0.63615   0.58007 
N          N       0.36385   0.91375   0.58007 
C          C       0.94104   0.58529   0.65891 
C          C       0.41471   0.35575   0.65891 
C          C       0.64425   0.05896   0.65891 
C          C       0.05896   0.41471   0.65891 
C          C       0.58529   0.64425   0.65891 
C          C       0.35575   0.94104   0.65891 
C          C       0.98567   0.60553   0.62546 
C          C       0.39447   0.38014   0.62546 
C          C       0.61986   0.01433   0.62546 
C          C       0.01433   0.39447   0.62546 
C          C       0.60553   0.61986   0.62546 
C          C       0.38014   0.98567   0.62546 
O          O       0.92854   0.60003   0.76221 
O          O       0.39997   0.32851   0.76221 
O          O       0.67149   0.07146   0.76221 
O          O       0.07146   0.39997   0.76221 
O          O       0.60003   0.67149   0.76221 
O          O       0.32851   0.92854   0.76221 
C          C       0.00306   0.58168   0.58212 
C          C       0.41832   0.42138   0.58212 
C          C       0.57862   0.99694   0.58212 
C          C       0.99694   0.41832   0.58212 
C          C       0.58168   0.57862   0.58212 
C          C       0.42138   0.00306   0.58212 
C          C       0.04509   0.59809   0.57295 
C          C       0.40191   0.44700   0.57295 
C          C       0.55300   0.95491   0.57295 
C          C       0.95491   0.40191   0.57295 
C          C       0.59809   0.55300   0.57295 
C          C       0.44700   0.04509   0.57295 
C          C       0.07126   0.64046   0.59433 
C          C       0.35954   0.43080   0.59433 
C          C       0.56920   0.92874   0.59433 
C          C       0.92874   0.35954   0.59433 
C          C       0.64046   0.56920   0.59433 
C          C       0.43080   0.07126   0.59433 
C          C       0.05417   0.66469   0.63497 
C          C       0.33531   0.38948   0.63497 
C          C       0.61052   0.94583   0.63497 
C          C       0.94583   0.33531   0.63497 
C          C       0.66469   0.61052   0.63497 
C          C       0.38948   0.05417   0.63497 
C          C       0.01201   0.64790   0.65083 
C          C       0.35210   0.36411   0.65083 
C          C       0.63589   0.98799   0.65083 
C          C       0.98799   0.35210   0.65083 
C          C       0.64790   0.63589   0.65083 
C          C       0.36411   0.01201   0.65083 
C          C       0.11579   0.65935   0.56776 
C          C       0.34065   0.45644   0.56776 
C          C       0.54356   0.88421   0.56776 
C          C       0.88421   0.34065   0.56776 
C          C       0.65935   0.54356   0.56776 
C          C       0.45644   0.11579   0.56776 
N          N       0.14335   0.69156   0.66072 
N          N       0.30844   0.45179   0.66072 
N          N       0.54821   0.85665   0.66072 
N          N       0.85665   0.30844   0.66072 
N          N       0.69156   0.54821   0.66072 
N          N       0.45179   0.14335   0.66072 
O          O       0.12830   0.64513   0.96248 
O          O       0.35487   0.48317   0.96248 
O          O       0.51683   0.87170   0.96248 
O          O       0.87170   0.35487   0.96248 
O          O       0.64513   0.51683   0.96248 
O          O       0.48317   0.12830   0.96248 
N          N       0.18471   0.70371   0.64468 
N          N       0.29629   0.48100   0.64468 
N          N       0.51900   0.81529   0.64468 
N          N       0.81529   0.29629   0.64468 
N          N       0.70371   0.51900   0.64468 
N          N       0.48100   0.18471   0.64468 
C          C       0.21329   0.73548   0.71822 
C          C       0.26452   0.47781   0.71822 
C          C       0.52219   0.78671   0.71822 
C          C       0.78671   0.26452   0.71822 
C          C       0.73548   0.52219   0.71822 
C          C       0.47781   0.21329   0.71822 
O          O       0.99801   0.67420   0.70100 
O          O       0.32580   0.32381   0.70100 
O          O       0.67619   0.00199   0.70100 
O          O       0.00199   0.32580   0.70100 
O          O       0.67420   0.67619   0.70100 
O          O       0.32381   0.99801   0.70100 
O          O       0.05939   0.57096   0.54166 
O          O       0.42904   0.48843   0.54166 
O          O       0.51157   0.94061   0.54166 
O          O       0.94061   0.42904   0.54166 
O          O       0.57096   0.51157   0.54166 
O          O       0.48843   0.05939   0.54166 
C          C       0.97152   0.67897   0.58781 
C          C       0.32103   0.29255   0.58781 
C          C       0.70745   0.02848   0.58781 
C          C       0.02848   0.32103   0.58781 
C          C       0.67897   0.70745   0.58781 
C          C       0.29255   0.97152   0.58781 
C          C       0.99214   0.72274   0.52649 
C          C       0.27726   0.26940   0.52649 
C          C       0.73060   0.00786   0.52649 
C          C       0.00786   0.27726   0.52649 
C          C       0.72274   0.73060   0.52649 
C          C       0.26940   0.99214   0.52649 
C          C       0.08752   0.57075   0.66033 
C          C       0.42925   0.51677   0.66033 
C          C       0.48323   0.91248   0.66033 
C          C       0.91248   0.42925   0.66033 
C          C       0.57075   0.48323   0.66033 
C          C       0.51677   0.08752   0.66033 
C          C       0.07069   0.52858   0.73342 
C          C       0.47142   0.54211   0.73342 
C          C       0.45789   0.92931   0.73342 
C          C       0.92931   0.47142   0.73342 
C          C       0.52858   0.45789   0.73342 
C          C       0.54211   0.07069   0.73342 
H          H       0.68674   0.44088   0.67046 
H          H       0.55912   0.24586   0.67046 
H          H       0.75414   0.31326   0.67046 
H          H       0.31326   0.55912   0.67046 
H          H       0.44088   0.75414   0.67046 
H          H       0.24586   0.68674   0.67046 
H          H       0.78280   0.41540   0.55241 
H          H       0.58460   0.36740   0.55241 
H          H       0.63260   0.21720   0.55241 
H          H       0.21720   0.58460   0.55241 
H          H       0.41540   0.63260   0.55241 
H          H       0.36740   0.78280   0.55241 
H          H       0.81086   0.53675   0.68680 
H          H       0.46325   0.27411   0.68680 
H          H       0.72589   0.18914   0.68680 
H          H       0.18914   0.46325   0.68680 
H          H       0.53675   0.72589   0.68680 
H          H       0.27411   0.81086   0.68680 
H          H       0.85525   0.47523   0.51233 
H          H       0.52477   0.38002   0.51233 
H          H       0.61998   0.14475   0.51233 
H          H       0.14475   0.52477   0.51233 
H          H       0.47523   0.61998   0.51233 
H          H       0.38002   0.85525   0.51233 
H          H       0.92313   0.53785   0.98388 
H          H       0.46215   0.38528   0.98388 
H          H       0.61472   0.07687   0.98388 
H          H       0.07687   0.46215   0.98388 
H          H       0.53785   0.61472   0.98388 
H          H       0.38528   0.92313   0.98388 
H          H       0.98446   0.54941   0.56358 
H          H       0.45059   0.43505   0.56358 
H          H       0.56495   0.01554   0.56358 
H          H       0.01554   0.45059   0.56358 
H          H       0.54941   0.56495   0.56358 
H          H       0.43505   0.98446   0.56358 
H          H       0.07346   0.69720   0.65139 
H          H       0.30280   0.37626   0.65139 
H          H       0.62374   0.92654   0.65139 
H          H       0.92654   0.30280   0.65139 
H          H       0.69720   0.62374   0.65139 
H          H       0.37626   0.07346   0.65139 
H          H       0.13397   0.70544   0.74915 
H          H       0.29456   0.42853   0.74915 
H          H       0.57147   0.86603   0.74915 
H          H       0.86603   0.29456   0.74915 
H          H       0.70544   0.57147   0.74915 
H          H       0.42853   0.13397   0.74915 
H          H       0.20606   0.75520   0.79060 
H          H       0.24480   0.45086   0.79060 
H          H       0.54914   0.79394   0.79060 
H          H       0.79394   0.24480   0.79060 
H          H       0.75520   0.54914   0.79060 
H          H       0.45086   0.20606   0.79060 
H          H       0.94318   0.67211   0.65499 
H          H       0.32789   0.27107   0.65499 
H          H       0.72893   0.05682   0.65499 
H          H       0.05682   0.32789   0.65499 
H          H       0.67211   0.72893   0.65499 
H          H       0.27107   0.94318   0.65499 
H          H       0.96285   0.65820   0.97892 
H          H       0.34180   0.30465   0.97892 
H          H       0.69535   0.03715   0.97892 
H          H       0.03715   0.34180   0.97892 
H          H       0.65820   0.69535   0.97892 
H          H       0.30465   0.96285   0.97892 
H          H       0.97150   0.72675   0.94012 
H          H       0.27325   0.24475   0.94012 
H          H       0.75525   0.02850   0.94012 
H          H       0.02850   0.27325   0.94012 
H          H       0.72675   0.75525   0.94012 
H          H       0.24475   0.97150   0.94012 
H          H       0.02069   0.73031   0.95938 
H          H       0.26969   0.29038   0.95938 
H          H       0.70962   0.97931   0.95938 
H          H       0.97931   0.26969   0.95938 
H          H       0.73031   0.70962   0.95938 
H          H       0.29038   0.02069   0.95938 
H          H       0.99952   0.74380   0.63397 
H          H       0.25620   0.25572   0.63397 
H          H       0.74428   0.00048   0.63397 
H          H       0.00048   0.25620   0.63397 
H          H       0.74380   0.74428   0.63397 
H          H       0.25572   0.99952   0.63397 
H          H       0.09381   0.59227   0.76364 
H          H       0.40773   0.50154   0.76364 
H          H       0.49846   0.90619   0.76364 
H          H       0.90619   0.40773   0.76364 
H          H       0.59227   0.49846   0.76364 
H          H       0.50154   0.09381   0.76364 
H          H       0.11670   0.57922   0.59659 
H          H       0.42078   0.53748   0.59659 
H          H       0.46252   0.88330   0.59659 
H          H       0.88330   0.42078   0.59659 
H          H       0.57922   0.46252   0.59659 
H          H       0.53748   0.11670   0.59659 
H          H       0.06896   0.50807   0.63299 
H          H       0.49193   0.56089   0.63299 
H          H       0.43911   0.93104   0.63299 
H          H       0.93104   0.49193   0.63299 
H          H       0.50807   0.43911   0.63299 
H          H       0.56089   0.06896   0.63299 
H          H       0.03992   0.51761   0.78688 
H          H       0.48239   0.52231   0.78688 
H          H       0.47769   0.96008   0.78688 
H          H       0.96008   0.48239   0.78688 
H          H       0.51761   0.47769   0.78688 
H          H       0.52231   0.03992   0.78688 
H          H       0.09142   0.52887   0.83186 
H          H       0.47113   0.56255   0.83186 
H          H       0.43745   0.90858   0.83186 
H          H       0.90858   0.47113   0.83186 
H          H       0.52887   0.43745   0.83186 
H          H       0.56255   0.09142   0.83186 
