data_crystal

_cell_length_a    52.28920
_cell_length_b    40.76930
_cell_length_c    8.86870
_cell_angle_alpha 95.60400
_cell_angle_beta  104.52300
_cell_angle_gamma 129.09800

_space_group_name_Hall 'P 1'
_space_group_name_H-M_alt  'P 1'

loop_
_symmetry_equiv_pos_as_xyz
'x,y,z' 

loop_
_atom_site_label
_atom_site_type_symbol
_atom_site_fract_x
_atom_site_fract_y
_atom_site_fract_z
C          C       0.41650   0.84250   0.23250 
C          C       0.40970   0.80670   0.13000 
C          C       0.38570   0.76290   0.13130 
C          C       0.36740   0.75140   0.23810 
C          C       0.37440   0.78740   0.34060 
C          C       0.39800   0.83140   0.33780 
C          C       0.39490   0.70620   0.29130 
C          C       0.35770   0.68340   0.24920 
N          N       0.34040   0.63860   0.22690 
C          C       0.36420   0.63170   0.25150 
C          C       0.26430   0.48610   0.19420 
C          C       0.29740   0.50610   0.18650 
C          C       0.32020   0.55350   0.24620 
N          N       0.30010   0.56070   0.29080 
C          C       0.26590   0.52080   0.25900 
C          C       0.35530   0.59020   0.24940 
C          C       0.19190   0.51390   0.26650 
C          C       0.20420   0.49190   0.26500 
C          C       0.23930   0.52230   0.26700 
N          N       0.24690   0.56130   0.27040 
C          C       0.21890   0.55820   0.26570 
C          C       0.29190   0.70290   0.21730 
C          C       0.25900   0.67390   0.22490 
C          C       0.25290   0.63510   0.25030 
N          N       0.28340   0.64250   0.25710 
C          C       0.30760   0.68320   0.23890 
C          C       0.34270   0.70350   0.24160 
C          C       0.22100   0.59520   0.25750 
C          C       0.39870   0.67550   0.29200 
C          C       0.37970   0.58130   0.24950 
C          C       0.18820   0.58810   0.25460 
C          C       0.40400   0.59900   0.17060 
C          C       0.42350   0.58660   0.16290 
C          C       0.42120   0.55600   0.23720 
C          C       0.39760   0.53890   0.31960 
C          C       0.37800   0.55120   0.32530 
C          C       0.15220   0.54690   0.15760 
C          C       0.12170   0.53770   0.16240 
C          C       0.12440   0.56960   0.26520 
C          C       0.16020   0.61130   0.35850 
C          C       0.19060   0.62000   0.35440 
H          H       0.44090   0.60110   0.09630 
H          H       0.40720   0.62230   0.10790 
H          H       0.36070   0.53660   0.39260 
H          H       0.39420   0.51520   0.38000 
H          H       0.30390   0.48830   0.13530 
H          H       0.24100   0.45050   0.15230 
H          H       0.42380   0.68330   0.32440 
H          H       0.41670   0.74200   0.32380 
H          H       0.38100   0.73670   0.04690 
H          H       0.42300   0.81330   0.04520 
H          H       0.40280   0.85760   0.42300 
H          H       0.36180   0.78120   0.42820 
H          H       0.30370   0.73430   0.19500 
H          H       0.24030   0.67840   0.21090 
H          H       0.21710   0.65270   0.43340 
H          H       0.16460   0.63770   0.44010 
H          H       0.14760   0.52090   0.07170 
H          H       0.09530   0.50540   0.08070 
H          H       0.16610   0.49960   0.26800 
H          H       0.18970   0.45780   0.26400 
H          H       0.31310   0.61370   0.17120 
C          C       0.57720   0.17340   0.22110 
C          C       0.56860   0.18750   0.09410 
C          C       0.59290   0.23200   0.09840 
C          C       0.62690   0.26590   0.23170 
C          C       0.63540   0.25150   0.35720 
C          C       0.61160   0.20670   0.35250 
C          C       0.60020   0.31260   0.21120 
C          C       0.63670   0.33480   0.23600 
N          N       0.65330   0.37900   0.24910 
C          C       0.62950   0.38580   0.23080 
C          C       0.72930   0.53060   0.29320 
C          C       0.69590   0.51070   0.29720 
C          C       0.67260   0.46330   0.22920 
N          N       0.69240   0.45610   0.18080 
C          C       0.72720   0.49590   0.22120 
C          C       0.63760   0.42660   0.22850 
C          C       0.80540   0.50800   0.26840 
C          C       0.79210   0.52890   0.26640 
C          C       0.75430   0.49510   0.21830 
N          N       0.74590   0.45500   0.18890 
C          C       0.77600   0.46080   0.22370 
C          C       0.69980   0.31280   0.23470 
C          C       0.73320   0.34200   0.23170 
C          C       0.74240   0.38420   0.23840 
N          N       0.71360   0.37900   0.24750 
C          C       0.68730   0.33610   0.24470 
C          C       0.65200   0.31530   0.24060 
C          C       0.77430   0.42410   0.23110 
C          C       0.59590   0.34270   0.20690 
C          C       0.61330   0.43550   0.22970 
C          C       0.80730   0.43220   0.23410 
C          C       0.61490   0.46560   0.15390 
C          C       0.59520   0.47760   0.15910 
C          C       0.57130   0.46020   0.24050 
C          C       0.56910   0.42970   0.31510 
C          C       0.58890   0.41770   0.30840 
C          C       0.82730   0.45810   0.14460 
C          C       0.85890   0.46870   0.14850 
C          C       0.87340   0.45380   0.24300 
C          C       0.85310   0.42700   0.32960 
C          C       0.82200   0.41720   0.32710 
H          H       0.59860   0.50140   0.09920 
H          H       0.63230   0.48030   0.08750 
H          H       0.58590   0.39460   0.37180 
H          H       0.55160   0.41500   0.38120 
H          H       0.68960   0.52820   0.35160 
H          H       0.75310   0.56610   0.34120 
H          H       0.57110   0.33490   0.18520 
H          H       0.57920   0.27760   0.19630 
H          H       0.58490   0.24050   0.99530 
H          H       0.54270   0.16310   0.98860 
H          H       0.61950   0.19810   0.45550 
H          H       0.66120   0.27590   0.46360 
H          H       0.68510   0.27820   0.22880 
H          H       0.74940   0.33460   0.22140 
H          H       0.80890   0.39750   0.40170 
H          H       0.86260   0.41430   0.40560 
H          H       0.81770   0.47010   0.06560 
H          H       0.87190   0.48810   0.07310 
H          H       0.83340   0.52500   0.30650 
H          H       0.80780   0.56460   0.29830 
H          H       0.68060   0.40390   0.29530 
C          C       0.48010   0.52640   0.26180 
C          C       0.46130   0.48620   0.13290 
C          C       0.47690   0.46880   0.11290 
C          C       0.51220   0.48940   0.21880 
C          C       0.53090   0.52950   0.34820 
C          C       0.51530   0.54690   0.36800 
N          N       0.55610   0.47860   0.27080 
C          C       0.52640   0.46770   0.18210 
C          C       0.46580   0.54810   0.29740 
N          N       0.43630   0.53750   0.20730 
H          H       0.43410   0.46800   0.04580 
H          H       0.46090   0.43770   0.01020 
H          H       0.55810   0.54750   0.43560 
H          H       0.53140   0.57790   0.47070 
H          H       0.50740   0.43910   0.06220 
H          H       0.48480   0.57660   0.41780 
C          C       0.47110   0.96420   0.24240 
C          C       0.50570   0.98260   0.25910 
C          C       0.53170   0.02650   0.26140 
C          C       0.52500   0.05490   0.24590 
C          C       0.49030   0.03640   0.22920 
C          C       0.46440   0.99270   0.22830 
N          N       0.54980   0.12870   0.21850 
C          C       0.55390   0.10140   0.24750 
C          C       0.44190   0.91740   0.23800 
N          N       0.44390   0.88720   0.23580 
H          H       0.51240   0.96230   0.27060 
H          H       0.55800   0.03920   0.27480 
H          H       0.48360   0.05670   0.21710 
H          H       0.43810   0.98010   0.21540 
H          H       0.58010   0.11070   0.27150 
H          H       0.41700   0.90970   0.23140 
C          C       0.03060   0.52070   0.24570 
C          C       0.03040   0.55510   0.28430 
C          C       0.99960   0.54580   0.28440 
C          C       0.96620   0.50190   0.24750 
C          C       0.96640   0.46750   0.20870 
C          C       0.99720   0.47680   0.20810 
N          N       0.90350   0.45940   0.24020 
C          C       0.93460   0.49590   0.25210 
C          C       0.06240   0.52690   0.24270 
N          N       0.09470   0.56450   0.27150 
H          H       0.05490   0.58990   0.31550 
H          H       0.00160   0.57420   0.31570 
H          H       0.94190   0.43270   0.17770 
H          H       0.99510   0.44840   0.17660 
H          H       0.94110   0.52830   0.27380 
H          H       0.05540   0.49420   0.21350 
C          C       0.91990   0.84230   0.73660 
C          C       0.91310   0.80660   0.63420 
C          C       0.88900   0.76270   0.63530 
C          C       0.87070   0.75120   0.74170 
C          C       0.87760   0.78710   0.84410 
C          C       0.90120   0.83110   0.84160 
C          C       0.89810   0.70590   0.79480 
C          C       0.86100   0.68310   0.75230 
N          N       0.84360   0.63830   0.72950 
C          C       0.86740   0.63140   0.75400 
C          C       0.76730   0.48570   0.69420 
C          C       0.80050   0.50570   0.68710 
C          C       0.82330   0.55310   0.74760 
N          N       0.80320   0.56020   0.79220 
C          C       0.76890   0.52030   0.75960 
C          C       0.85850   0.58980   0.75130 
C          C       0.69480   0.51330   0.76640 
C          C       0.70710   0.49130   0.76460 
C          C       0.74230   0.52180   0.76740 
N          N       0.74990   0.56080   0.77160 
C          C       0.72190   0.55770   0.76660 
C          C       0.79510   0.70260   0.72060 
C          C       0.76220   0.67350   0.72770 
C          C       0.75610   0.63470   0.75240 
N          N       0.78660   0.64210   0.75930 
C          C       0.81080   0.68290   0.74180 
C          C       0.84600   0.70330   0.74480 
C          C       0.72410   0.59470   0.75900 
C          C       0.90190   0.67520   0.79500 
C          C       0.88280   0.58090   0.75090 
C          C       0.69130   0.58760   0.75580 
C          C       0.90710   0.59870   0.67210 
C          C       0.92660   0.58630   0.66370 
C          C       0.92420   0.55550   0.73720 
C          C       0.90060   0.53840   0.81960 
C          C       0.88110   0.55070   0.82600 
C          C       0.65530   0.54650   0.65820 
C          C       0.62480   0.53730   0.66260 
C          C       0.62740   0.56910   0.76590 
C          C       0.66330   0.61080   0.85990 
C          C       0.69370   0.61950   0.85600 
H          H       0.94400   0.60090   0.59720 
H          H       0.91040   0.62210   0.61000 
H          H       0.86380   0.53600   0.89320 
H          H       0.89710   0.51450   0.87940 
H          H       0.80700   0.48800   0.63560 
H          H       0.74400   0.45000   0.65150 
H          H       0.92700   0.68300   0.82750 
H          H       0.92000   0.74180   0.82760 
H          H       0.88450   0.73660   0.55090 
H          H       0.92640   0.81320   0.54970 
H          H       0.90600   0.85740   0.92670 
H          H       0.86500   0.78090   0.93150 
H          H       0.80700   0.73410   0.69880 
H          H       0.74350   0.67810   0.71390 
H          H       0.72010   0.65210   0.93570 
H          H       0.66760   0.63710   0.94190 
H          H       0.65060   0.52050   0.57190 
H          H       0.59830   0.50510   0.58060 
H          H       0.66900   0.49890   0.76740 
H          H       0.69260   0.45710   0.76290 
H          H       0.81630   0.61340   0.67360 
C          C       0.08040   0.17310   0.72480 
C          C       0.07180   0.18730   0.59800 
C          C       0.09590   0.23170   0.60190 
C          C       0.13010   0.26560   0.73460 
C          C       0.13880   0.25120   0.85980 
C          C       0.11500   0.20650   0.85560 
C          C       0.10340   0.31230   0.71420 
C          C       0.13980   0.33450   0.73840 
N          N       0.15640   0.37860   0.75070 
C          C       0.13260   0.38540   0.73240 
C          C       0.23210   0.53000   0.79100 
C          C       0.19870   0.51010   0.79510 
C          C       0.17550   0.46270   0.72860 
N          N       0.19530   0.45550   0.68110 
C          C       0.23010   0.49530   0.72050 
C          C       0.14060   0.42620   0.72890 
C          C       0.30830   0.50740   0.76840 
C          C       0.29500   0.52830   0.76590 
C          C       0.25720   0.49450   0.71800 
N          N       0.24890   0.45450   0.68940 
C          C       0.27890   0.46030   0.72430 
C          C       0.20290   0.31230   0.73610 
C          C       0.23620   0.34150   0.73270 
C          C       0.24540   0.38380   0.73960 
N          N       0.21670   0.37860   0.74920 
C          C       0.19040   0.33580   0.74660 
C          C       0.15510   0.31490   0.74300 
C          C       0.27730   0.42360   0.73200 
C          C       0.09910   0.34240   0.70950 
C          C       0.11630   0.43490   0.72970 
C          C       0.31030   0.43170   0.73450 
C          C       0.11740   0.46450   0.65160 
C          C       0.09760   0.47640   0.65610 
C          C       0.07420   0.45950   0.73940 
C          C       0.07240   0.42960   0.81660 
C          C       0.09220   0.41760   0.81030 
C          C       0.33030   0.45760   0.64510 
C          C       0.36180   0.46810   0.64870 
C          C       0.37630   0.45320   0.74270 
C          C       0.35600   0.42630   0.82930 
C          C       0.32490   0.41660   0.82710 
H          H       0.10070   0.49970   0.59430 
H          H       0.13460   0.47890   0.58370 
H          H       0.08950   0.39500   0.87550 
H          H       0.05520   0.41540   0.88440 
H          H       0.19230   0.52770   0.84830 
H          H       0.25580   0.56560   0.83780 
H          H       0.07430   0.33470   0.68820 
H          H       0.08250   0.27740   0.70010 
H          H       0.08790   0.24010   0.49900 
H          H       0.04580   0.16280   0.49300 
H          H       0.12300   0.19790   0.95840 
H          H       0.16460   0.27570   0.96580 
H          H       0.18810   0.27780   0.73010 
H          H       0.25230   0.33410   0.72190 
H          H       0.31190   0.39690   0.90170 
H          H       0.36540   0.41360   0.90490 
H          H       0.32060   0.46960   0.56640 
H          H       0.37480   0.48760   0.57330 
H          H       0.33640   0.52450   0.80660 
H          H       0.31070   0.56400   0.79730 
H          H       0.18370   0.40350   0.79640 
C          C       0.98290   0.52570   0.76000 
C          C       0.96430   0.48570   0.62990 
C          C       0.97980   0.46830   0.60980 
C          C       0.01500   0.48870   0.71630 
C          C       0.03360   0.52860   0.84650 
C          C       0.01810   0.54600   0.86670 
N          N       0.05890   0.47780   0.76910 
C          C       0.02920   0.46700   0.67980 
C          C       0.96870   0.54740   0.79640 
N          N       0.93930   0.53700   0.70630 
H          H       0.93710   0.46780   0.54210 
H          H       0.96390   0.43740   0.50640 
H          H       0.06080   0.54660   0.93420 
H          H       0.03400   0.57680   0.97020 
H          H       0.01020   0.43840   0.55960 
H          H       0.98750   0.57560   0.91750 
C          C       0.97440   0.96400   0.74670 
C          C       0.00910   0.98250   0.76400 
C          C       0.03510   0.02640   0.76640 
C          C       0.02830   0.05470   0.75030 
C          C       0.99360   0.03620   0.73310 
C          C       0.96780   0.99250   0.73220 
N          N       0.05320   0.12850   0.72260 
C          C       0.05730   0.10120   0.75170 
C          C       0.94530   0.91730   0.74220 
N          N       0.94720   0.88700   0.74020 
H          H       0.01580   0.96220   0.77590 
H          H       0.06150   0.03910   0.78020 
H          H       0.98690   0.05650   0.72060 
H          H       0.94140   0.97980   0.71880 
H          H       0.08350   0.11050   0.77590 
H          H       0.92030   0.90950   0.73510 
C          C       0.53360   0.52020   0.74590 
C          C       0.53330   0.55450   0.78390 
C          C       0.50250   0.54520   0.78380 
C          C       0.46910   0.50130   0.74720 
C          C       0.46940   0.46700   0.70920 
C          C       0.50020   0.47630   0.70870 
N          N       0.40640   0.45870   0.73970 
C          C       0.43740   0.49530   0.75140 
C          C       0.56540   0.52640   0.74270 
N          N       0.59770   0.56400   0.77190 
H          H       0.55780   0.58940   0.81470 
H          H       0.50450   0.57350   0.81460 
H          H       0.44500   0.43210   0.67860 
H          H       0.49820   0.44790   0.67780 
H          H       0.44390   0.52760   0.77260 
H          H       0.55840   0.49370   0.71330 
H          H       0.18440   0.42540   0.60840 
H          H       0.22410   0.42380   0.66130 
H          H       0.31080   0.59090   0.36140 
H          H       0.26960   0.58940   0.26510 
H          H       0.81390   0.59040   0.86330 
H          H       0.77270   0.58900   0.76700 
H          H       0.68140   0.42610   0.10720 
H          H       0.72110   0.42430   0.16050 
