data_crystal

_cell_length_a    45.60000
_cell_length_b    45.60000
_cell_length_c    7.42000
_cell_angle_alpha 90.00000
_cell_angle_beta  90.00000
_cell_angle_gamma 90.00000

_space_group_name_Hall 'P 1'
_space_group_name_H-M_alt  'P 1'

loop_
_symmetry_equiv_pos_as_xyz
'x,y,z' 

loop_
_atom_site_label
_atom_site_type_symbol
_atom_site_fract_x
_atom_site_fract_y
_atom_site_fract_z
C          C       0.02074   0.56050   0.23720 
C          C       0.04970   0.55427   0.27587 
C          C       0.05832   0.52543   0.29599 
C          C       0.08667   0.51783   0.33628 
C          C       0.14664   0.34067   0.25560 
C          C       0.11246   0.62481   0.30076 
C          C       0.07175   0.57863   0.28708 
C          C       0.20015   0.32910   0.20513 
C          C       0.21701   0.27965   0.25304 
C          C       0.18877   0.27105   0.29844 
C          C       0.16618   0.29142   0.29775 
C          C       0.17154   0.32049   0.25137 
C          C       0.24024   0.25877   0.25460 
N          N       0.99825   0.54137   0.24678 
N          N       0.04137   0.50175   0.26390 
C          C       0.97457   0.55832   0.21470 
C          C       0.08807   0.48843   0.32158 
C          C       0.06050   0.47926   0.27349 
C          C       0.05427   0.45030   0.23482 
C          C       0.01157   0.58807   0.18910 
C          C       0.07863   0.42825   0.22360 
C          C       0.06435   0.60569   0.36426 
N          N       0.14872   0.36757   0.20375 
C          C       0.22266   0.30860   0.20663 
C          C       0.98217   0.58667   0.17441 
C          C       0.12029   0.59786   0.22499 
C          C       0.08438   0.62857   0.36987 
C          C       0.10007   0.57519   0.21720 
N          N       0.13244   0.64872   0.30691 
C          C       0.12481   0.38754   0.20990 
C          C       0.29986   0.17091   0.30551 
C          C       0.27734   0.19140   0.30401 
C          C       0.28299   0.22035   0.25759 
C          C       0.31124   0.22895   0.21218 
C          C       0.33382   0.20858   0.21287 
C          C       0.32847   0.17951   0.25928 
C          C       0.15934   0.64664   0.25505 
C          C       0.25977   0.24123   0.25601 
C          C       0.10569   0.43565   0.14642 
C          C       0.12857   0.41563   0.14080 
C          C       0.09786   0.37971   0.28567 
C          C       0.07520   0.39993   0.29347 
O          O       0.20649   0.35728   0.15948 
O          O       0.29351   0.14272   0.35118 
Ni         Ni      0.00000   0.50000   0.25534 
C          C       0.97926   0.43950   0.23720 
C          C       0.95030   0.44573   0.27587 
C          C       0.94168   0.47457   0.29599 
C          C       0.91333   0.48217   0.33628 
C          C       0.92825   0.42137   0.28708 
N          N       0.00175   0.45863   0.24678 
N          N       0.95863   0.49825   0.26390 
C          C       0.02543   0.44168   0.21470 
C          C       0.91193   0.51157   0.32158 
C          C       0.93950   0.52074   0.27349 
C          C       0.94573   0.54970   0.23482 
C          C       0.92137   0.57175   0.22360 
C          C       0.93565   0.39431   0.36426 
C          C       0.89431   0.56435   0.14642 
C          C       0.87143   0.58437   0.14080 
C          C       0.90214   0.62029   0.28567 
C          C       0.92480   0.60007   0.29347 
C          C       0.98843   0.41193   0.18910 
C          C       0.01783   0.41333   0.17441 
C          C       0.91562   0.37143   0.36987 
C          C       0.89993   0.42481   0.21720 
C          C       0.87519   0.61246   0.20990 
C          C       0.88754   0.37519   0.30076 
C          C       0.87971   0.40214   0.22499 
N          N       0.85128   0.63243   0.20375 
N          N       0.86756   0.35128   0.30691 
C          C       0.85336   0.65933   0.25560 
C          C       0.79985   0.67090   0.20513 
C          C       0.78299   0.72035   0.25304 
C          C       0.81123   0.72895   0.29844 
C          C       0.83382   0.70858   0.29775 
C          C       0.82846   0.67951   0.25137 
C          C       0.75976   0.74123   0.25460 
O          O       0.79351   0.64272   0.15948 
C          C       0.84066   0.35336   0.25505 
C          C       0.70014   0.82909   0.30551 
C          C       0.72266   0.80860   0.30401 
C          C       0.71701   0.77965   0.25759 
C          C       0.68876   0.77105   0.21218 
C          C       0.66618   0.79142   0.21287 
C          C       0.67153   0.82049   0.25928 
C          C       0.74023   0.75877   0.25601 
O          O       0.70649   0.85728   0.35118 
C          C       0.77734   0.69140   0.20663 
C          C       0.43950   0.02074   0.23720 
C          C       0.44573   0.04970   0.27587 
C          C       0.47457   0.05832   0.29599 
C          C       0.48217   0.08667   0.33628 
C          C       0.42137   0.07175   0.28708 
N          N       0.45863   0.99825   0.24678 
N          N       0.49825   0.04137   0.26390 
C          C       0.44168   0.97457   0.21470 
C          C       0.51157   0.08807   0.32158 
C          C       0.52074   0.06050   0.27349 
C          C       0.54970   0.05427   0.23482 
C          C       0.57175   0.07863   0.22360 
C          C       0.39431   0.06435   0.36426 
C          C       0.56435   0.10569   0.14642 
C          C       0.58437   0.12857   0.14080 
C          C       0.62029   0.09786   0.28567 
C          C       0.60007   0.07520   0.29347 
C          C       0.41193   0.01157   0.18910 
C          C       0.41333   0.98217   0.17441 
C          C       0.37143   0.08438   0.36987 
C          C       0.42481   0.10007   0.21720 
C          C       0.61246   0.12481   0.20990 
C          C       0.37519   0.11246   0.30076 
C          C       0.40214   0.12029   0.22499 
N          N       0.63243   0.14872   0.20375 
N          N       0.35128   0.13244   0.30691 
C          C       0.65933   0.14664   0.25560 
C          C       0.67090   0.20015   0.20513 
C          C       0.72035   0.21701   0.25304 
C          C       0.72895   0.18877   0.29844 
C          C       0.70858   0.16618   0.29775 
C          C       0.67951   0.17154   0.25137 
C          C       0.74123   0.24024   0.25460 
O          O       0.64272   0.20649   0.15948 
C          C       0.35336   0.15934   0.25505 
C          C       0.82909   0.29986   0.30551 
C          C       0.80860   0.27734   0.30401 
C          C       0.77965   0.28299   0.25759 
C          C       0.77105   0.31124   0.21218 
C          C       0.79142   0.33382   0.21287 
C          C       0.82049   0.32847   0.25928 
C          C       0.75877   0.25977   0.25601 
O          O       0.85728   0.29351   0.35118 
C          C       0.69140   0.22266   0.20663 
C          C       0.56050   0.97926   0.23720 
C          C       0.55427   0.95030   0.27587 
C          C       0.52543   0.94168   0.29599 
C          C       0.51783   0.91333   0.33628 
C          C       0.57863   0.92825   0.28708 
N          N       0.54137   0.00175   0.24678 
N          N       0.50175   0.95863   0.26390 
C          C       0.55832   0.02543   0.21470 
C          C       0.48843   0.91193   0.32158 
C          C       0.47926   0.93950   0.27349 
C          C       0.45030   0.94573   0.23482 
C          C       0.42825   0.92137   0.22360 
C          C       0.60569   0.93565   0.36426 
C          C       0.43565   0.89431   0.14642 
C          C       0.41563   0.87143   0.14080 
C          C       0.37971   0.90214   0.28567 
C          C       0.39993   0.92480   0.29347 
C          C       0.58807   0.98843   0.18910 
C          C       0.58667   0.01783   0.17441 
C          C       0.62857   0.91562   0.36987 
C          C       0.57519   0.89993   0.21720 
C          C       0.38754   0.87519   0.20990 
C          C       0.62481   0.88754   0.30076 
C          C       0.59786   0.87971   0.22499 
N          N       0.36757   0.85128   0.20375 
N          N       0.64872   0.86756   0.30691 
C          C       0.34067   0.85336   0.25560 
C          C       0.32910   0.79985   0.20513 
C          C       0.27965   0.78299   0.25304 
C          C       0.27105   0.81123   0.29844 
C          C       0.29142   0.83382   0.29775 
C          C       0.32049   0.82846   0.25137 
C          C       0.25877   0.75976   0.25460 
O          O       0.35728   0.79351   0.15948 
C          C       0.64664   0.84066   0.25505 
C          C       0.17091   0.70014   0.30551 
C          C       0.19140   0.72266   0.30401 
C          C       0.22035   0.71701   0.25759 
C          C       0.22895   0.68876   0.21218 
C          C       0.20858   0.66618   0.21287 
C          C       0.17951   0.67153   0.25928 
C          C       0.24123   0.74023   0.25601 
O          O       0.14272   0.70649   0.35118 
C          C       0.30860   0.77734   0.20663 
Ni         Ni      0.50000   0.00000   0.25534 
H          H       0.12557   0.33269   0.30432 
H          H       0.20155   0.37045   0.26162 
H          H       0.24833   0.81565   0.33456 
H          H       0.18435   0.24833   0.33456 
H          H       0.35594   0.21540   0.17677 
H          H       0.94558   0.60630   0.35485 
H          H       0.27887   0.13466   0.26542 
H          H       0.96740   0.60447   0.13787 
H          H       0.39370   0.94558   0.35485 
H          H       0.60447   0.03260   0.13787 
H          H       0.35767   0.90534   0.33870 
H          H       0.90534   0.64233   0.33870 
H          H       0.14406   0.28460   0.33385 
H          H       0.31567   0.25167   0.17606 
H          H       0.18473   0.74486   0.33939 
H          H       0.02533   0.60726   0.16718 
H          H       0.40534   0.14233   0.17196 
H          H       0.81527   0.25514   0.33939 
H          H       0.71540   0.14406   0.33385 
H          H       0.75167   0.18435   0.33456 
H          H       0.25514   0.18473   0.33939 
H          H       0.55441   0.89370   0.15587 
H          H       0.78460   0.35594   0.17677 
H          H       0.44559   0.10630   0.15587 
H          H       0.85767   0.40534   0.17196 
H          H       0.75514   0.68474   0.17124 
H          H       0.35047   0.07809   0.42858 
H          H       0.68474   0.24486   0.17124 
H          H       0.72113   0.86534   0.26542 
H          H       0.64406   0.78460   0.17677 
H          H       0.86534   0.27887   0.26542 
H          H       0.68433   0.74833   0.17606 
H          H       0.14233   0.59466   0.17196 
H          H       0.74486   0.81527   0.33939 
H          H       0.83268   0.37443   0.20634 
H          H       0.79845   0.62955   0.26162 
H          H       0.85594   0.71540   0.33385 
H          H       0.04253   0.60880   0.42073 
H          H       0.74833   0.31567   0.17606 
H          H       0.60726   0.97467   0.16718 
H          H       0.33269   0.87443   0.30432 
H          H       0.62955   0.20155   0.26162 
H          H       0.59466   0.85767   0.17196 
H          H       0.64953   0.92191   0.42858 
H          H       0.14953   0.42193   0.08211 
H          H       0.89120   0.54253   0.08994 
H          H       0.05442   0.39370   0.35485 
H          H       0.62557   0.83268   0.20634 
H          H       0.31526   0.75514   0.17124 
H          H       0.81565   0.75167   0.33456 
H          H       0.89553   0.46740   0.37282 
H          H       0.07809   0.64953   0.42858 
H          H       0.25167   0.68433   0.17606 
H          H       0.03260   0.39553   0.13787 
H          H       0.92191   0.35047   0.42858 
H          H       0.89274   0.52533   0.34351 
H          H       0.24486   0.31526   0.17124 
H          H       0.10630   0.55441   0.15587 
H          H       0.97467   0.39274   0.16718 
H          H       0.09466   0.35767   0.33870 
H          H       0.13466   0.72113   0.26542 
H          H       0.10447   0.53260   0.37282 
H          H       0.87443   0.66731   0.30432 
H          H       0.10880   0.45747   0.08994 
H          H       0.39120   0.04253   0.42073 
H          H       0.42193   0.85047   0.08211 
H          H       0.16732   0.62557   0.20634 
H          H       0.45747   0.89120   0.08994 
H          H       0.28460   0.85594   0.33385 
H          H       0.52533   0.10726   0.34351 
H          H       0.60880   0.95747   0.42073 
H          H       0.53260   0.89553   0.37282 
H          H       0.10726   0.47467   0.34351 
H          H       0.37443   0.16732   0.20634 
H          H       0.46740   0.10447   0.37282 
H          H       0.47467   0.89274   0.34351 
H          H       0.21540   0.64406   0.17677 
H          H       0.37046   0.79845   0.26162 
H          H       0.54253   0.10880   0.08994 
H          H       0.85047   0.57807   0.08211 
H          H       0.66731   0.12557   0.30432 
H          H       0.39274   0.02533   0.16718 
H          H       0.60630   0.05442   0.35485 
H          H       0.39553   0.96740   0.13787 
H          H       0.57807   0.14953   0.08211 
H          H       0.89370   0.44559   0.15587 
H          H       0.95747   0.39120   0.42073 
H          H       0.64233   0.09466   0.33870 
C          C       0.02074   0.56050   0.73720 
C          C       0.04970   0.55427   0.77587 
C          C       0.05832   0.52543   0.79599 
C          C       0.08667   0.51783   0.83628 
C          C       0.14664   0.34067   0.75560 
C          C       0.11246   0.62481   0.80076 
C          C       0.07175   0.57863   0.78708 
C          C       0.20015   0.32910   0.70513 
C          C       0.21701   0.27965   0.75304 
C          C       0.18877   0.27105   0.79844 
C          C       0.16618   0.29142   0.79775 
C          C       0.17154   0.32049   0.75137 
C          C       0.24024   0.25877   0.75460 
N          N       0.99825   0.54137   0.74678 
N          N       0.04137   0.50175   0.76390 
C          C       0.97457   0.55832   0.71470 
C          C       0.08807   0.48843   0.82158 
C          C       0.06050   0.47926   0.77349 
C          C       0.05427   0.45030   0.73482 
C          C       0.01157   0.58807   0.68910 
C          C       0.07863   0.42825   0.72360 
C          C       0.06435   0.60569   0.86426 
N          N       0.14872   0.36757   0.70375 
C          C       0.22266   0.30860   0.70663 
C          C       0.98217   0.58667   0.67441 
C          C       0.12029   0.59786   0.72499 
C          C       0.08438   0.62857   0.86987 
C          C       0.10007   0.57519   0.71720 
N          N       0.13244   0.64872   0.80691 
C          C       0.12481   0.38754   0.70990 
C          C       0.29986   0.17091   0.80551 
C          C       0.27734   0.19140   0.80401 
C          C       0.28299   0.22035   0.75759 
C          C       0.31124   0.22895   0.71218 
C          C       0.33382   0.20858   0.71287 
C          C       0.32847   0.17951   0.75928 
C          C       0.15934   0.64664   0.75505 
C          C       0.25977   0.24123   0.75601 
C          C       0.10569   0.43565   0.64642 
C          C       0.12857   0.41563   0.64080 
C          C       0.09786   0.37971   0.78567 
C          C       0.07520   0.39993   0.79347 
O          O       0.20649   0.35728   0.65948 
O          O       0.29351   0.14272   0.85118 
Ni         Ni      0.00000   0.50000   0.75534 
C          C       0.97926   0.43950   0.73720 
C          C       0.95030   0.44573   0.77587 
C          C       0.94168   0.47457   0.79599 
C          C       0.91333   0.48217   0.83628 
C          C       0.92825   0.42137   0.78708 
N          N       0.00175   0.45863   0.74678 
N          N       0.95863   0.49825   0.76390 
C          C       0.02543   0.44168   0.71470 
C          C       0.91193   0.51157   0.82158 
C          C       0.93950   0.52074   0.77349 
C          C       0.94573   0.54970   0.73482 
C          C       0.92137   0.57175   0.72360 
C          C       0.93565   0.39431   0.86426 
C          C       0.89431   0.56435   0.64642 
C          C       0.87143   0.58437   0.64080 
C          C       0.90214   0.62029   0.78567 
C          C       0.92480   0.60007   0.79347 
C          C       0.98843   0.41193   0.68910 
C          C       0.01783   0.41333   0.67441 
C          C       0.91562   0.37143   0.86987 
C          C       0.89993   0.42481   0.71720 
C          C       0.87519   0.61246   0.70990 
C          C       0.88754   0.37519   0.80076 
C          C       0.87971   0.40214   0.72499 
N          N       0.85128   0.63243   0.70375 
N          N       0.86756   0.35128   0.80691 
C          C       0.85336   0.65933   0.75560 
C          C       0.79985   0.67090   0.70513 
C          C       0.78299   0.72035   0.75304 
C          C       0.81123   0.72895   0.79844 
C          C       0.83382   0.70858   0.79775 
C          C       0.82846   0.67951   0.75137 
C          C       0.75976   0.74123   0.75460 
O          O       0.79351   0.64272   0.65948 
C          C       0.84066   0.35336   0.75505 
C          C       0.70014   0.82909   0.80551 
C          C       0.72266   0.80860   0.80401 
C          C       0.71701   0.77965   0.75759 
C          C       0.68876   0.77105   0.71218 
C          C       0.66618   0.79142   0.71287 
C          C       0.67153   0.82049   0.75928 
C          C       0.74023   0.75877   0.75601 
O          O       0.70649   0.85728   0.85118 
C          C       0.77734   0.69140   0.70663 
C          C       0.43950   0.02074   0.73720 
C          C       0.44573   0.04970   0.77587 
C          C       0.47457   0.05832   0.79599 
C          C       0.48217   0.08667   0.83628 
C          C       0.42137   0.07175   0.78708 
N          N       0.45863   0.99825   0.74678 
N          N       0.49825   0.04137   0.76390 
C          C       0.44168   0.97457   0.71470 
C          C       0.51157   0.08807   0.82158 
C          C       0.52074   0.06050   0.77349 
C          C       0.54970   0.05427   0.73482 
C          C       0.57175   0.07863   0.72360 
C          C       0.39431   0.06435   0.86426 
C          C       0.56435   0.10569   0.64642 
C          C       0.58437   0.12857   0.64080 
C          C       0.62029   0.09786   0.78567 
C          C       0.60007   0.07520   0.79347 
C          C       0.41193   0.01157   0.68910 
C          C       0.41333   0.98217   0.67441 
C          C       0.37143   0.08438   0.86987 
C          C       0.42481   0.10007   0.71720 
C          C       0.61246   0.12481   0.70990 
C          C       0.37519   0.11246   0.80076 
C          C       0.40214   0.12029   0.72499 
N          N       0.63243   0.14872   0.70375 
N          N       0.35128   0.13244   0.80691 
C          C       0.65933   0.14664   0.75560 
C          C       0.67090   0.20015   0.70513 
C          C       0.72035   0.21701   0.75304 
C          C       0.72895   0.18877   0.79844 
C          C       0.70858   0.16618   0.79775 
C          C       0.67951   0.17154   0.75137 
C          C       0.74123   0.24024   0.75460 
O          O       0.64272   0.20649   0.65948 
C          C       0.35336   0.15934   0.75505 
C          C       0.82909   0.29986   0.80551 
C          C       0.80860   0.27734   0.80401 
C          C       0.77965   0.28299   0.75759 
C          C       0.77105   0.31124   0.71218 
C          C       0.79142   0.33382   0.71287 
C          C       0.82049   0.32847   0.75928 
C          C       0.75877   0.25977   0.75601 
O          O       0.85728   0.29351   0.85118 
C          C       0.69140   0.22266   0.70663 
C          C       0.56050   0.97926   0.73720 
C          C       0.55427   0.95030   0.77587 
C          C       0.52543   0.94168   0.79599 
C          C       0.51783   0.91333   0.83628 
C          C       0.57863   0.92825   0.78708 
N          N       0.54137   0.00175   0.74678 
N          N       0.50175   0.95863   0.76390 
C          C       0.55832   0.02543   0.71470 
C          C       0.48843   0.91193   0.82158 
C          C       0.47926   0.93950   0.77349 
C          C       0.45030   0.94573   0.73482 
C          C       0.42825   0.92137   0.72360 
C          C       0.60569   0.93565   0.86426 
C          C       0.43565   0.89431   0.64642 
C          C       0.41563   0.87143   0.64080 
C          C       0.37971   0.90214   0.78567 
C          C       0.39993   0.92480   0.79347 
C          C       0.58807   0.98843   0.68910 
C          C       0.58667   0.01783   0.67441 
C          C       0.62857   0.91562   0.86987 
C          C       0.57519   0.89993   0.71720 
C          C       0.38754   0.87519   0.70990 
C          C       0.62481   0.88754   0.80076 
C          C       0.59786   0.87971   0.72499 
N          N       0.36757   0.85128   0.70375 
N          N       0.64872   0.86756   0.80691 
C          C       0.34067   0.85336   0.75560 
C          C       0.32910   0.79985   0.70513 
C          C       0.27965   0.78299   0.75304 
C          C       0.27105   0.81123   0.79844 
C          C       0.29142   0.83382   0.79775 
C          C       0.32049   0.82846   0.75137 
C          C       0.25877   0.75976   0.75460 
O          O       0.35728   0.79351   0.65948 
C          C       0.64664   0.84066   0.75505 
C          C       0.17091   0.70014   0.80551 
C          C       0.19140   0.72266   0.80401 
C          C       0.22035   0.71701   0.75759 
C          C       0.22895   0.68876   0.71218 
C          C       0.20858   0.66618   0.71287 
C          C       0.17951   0.67153   0.75928 
C          C       0.24123   0.74023   0.75601 
O          O       0.14272   0.70649   0.85118 
C          C       0.30860   0.77734   0.70663 
Ni         Ni      0.50000   0.00000   0.75534 
H          H       0.12557   0.33269   0.80432 
H          H       0.20155   0.37045   0.76162 
H          H       0.24833   0.81565   0.83456 
H          H       0.18435   0.24833   0.83456 
H          H       0.35594   0.21540   0.67677 
H          H       0.94558   0.60630   0.85485 
H          H       0.27887   0.13466   0.76542 
H          H       0.96740   0.60447   0.63787 
H          H       0.39370   0.94558   0.85485 
H          H       0.60447   0.03260   0.63787 
H          H       0.35767   0.90534   0.83870 
H          H       0.90534   0.64233   0.83870 
H          H       0.14406   0.28460   0.83385 
H          H       0.31567   0.25167   0.67606 
H          H       0.18473   0.74486   0.83939 
H          H       0.02533   0.60726   0.66718 
H          H       0.40534   0.14233   0.67196 
H          H       0.81527   0.25514   0.83939 
H          H       0.71540   0.14406   0.83385 
H          H       0.75167   0.18435   0.83456 
H          H       0.25514   0.18473   0.83939 
H          H       0.55441   0.89370   0.65587 
H          H       0.78460   0.35594   0.67677 
H          H       0.44559   0.10630   0.65587 
H          H       0.85767   0.40534   0.67196 
H          H       0.75514   0.68474   0.67124 
H          H       0.35047   0.07809   0.92858 
H          H       0.68474   0.24486   0.67124 
H          H       0.72113   0.86534   0.76542 
H          H       0.64406   0.78460   0.67677 
H          H       0.86534   0.27887   0.76542 
H          H       0.68433   0.74833   0.67606 
H          H       0.14233   0.59466   0.67196 
H          H       0.74486   0.81527   0.83939 
H          H       0.83268   0.37443   0.70634 
H          H       0.79845   0.62955   0.76162 
H          H       0.85594   0.71540   0.83385 
H          H       0.04253   0.60880   0.92073 
H          H       0.74833   0.31567   0.67606 
H          H       0.60726   0.97467   0.66718 
H          H       0.33269   0.87443   0.80432 
H          H       0.62955   0.20155   0.76162 
H          H       0.59466   0.85767   0.67196 
H          H       0.64953   0.92191   0.92858 
H          H       0.14953   0.42193   0.58211 
H          H       0.89120   0.54253   0.58994 
H          H       0.05442   0.39370   0.85485 
H          H       0.62557   0.83268   0.70634 
H          H       0.31526   0.75514   0.67124 
H          H       0.81565   0.75167   0.83456 
H          H       0.89553   0.46740   0.87282 
H          H       0.07809   0.64953   0.92858 
H          H       0.25167   0.68433   0.67606 
H          H       0.03260   0.39553   0.63787 
H          H       0.92191   0.35047   0.92858 
H          H       0.89274   0.52533   0.84351 
H          H       0.24486   0.31526   0.67124 
H          H       0.10630   0.55441   0.65587 
H          H       0.97467   0.39274   0.66718 
H          H       0.09466   0.35767   0.83870 
H          H       0.13466   0.72113   0.76542 
H          H       0.10447   0.53260   0.87282 
H          H       0.87443   0.66731   0.80432 
H          H       0.10880   0.45747   0.58994 
H          H       0.39120   0.04253   0.92073 
H          H       0.42193   0.85047   0.58211 
H          H       0.16732   0.62557   0.70634 
H          H       0.45747   0.89120   0.58994 
H          H       0.28460   0.85594   0.83385 
H          H       0.52533   0.10726   0.84351 
H          H       0.60880   0.95747   0.92073 
H          H       0.53260   0.89553   0.87282 
H          H       0.10726   0.47467   0.84351 
H          H       0.37443   0.16732   0.70634 
H          H       0.46740   0.10447   0.87282 
H          H       0.47467   0.89274   0.84351 
H          H       0.21540   0.64406   0.67677 
H          H       0.37046   0.79845   0.76162 
H          H       0.54253   0.10880   0.58994 
H          H       0.85047   0.57807   0.58211 
H          H       0.66731   0.12557   0.80432 
H          H       0.39274   0.02533   0.66718 
H          H       0.60630   0.05442   0.85485 
H          H       0.39553   0.96740   0.63787 
H          H       0.57807   0.14953   0.58211 
H          H       0.89370   0.44559   0.65587 
H          H       0.95747   0.39120   0.92073 
H          H       0.64233   0.09466   0.83870 
