data_crystal

_cell_length_a    22.58660
_cell_length_b    22.58660
_cell_length_c    10.68420
_cell_angle_alpha 90.00000
_cell_angle_beta  90.00000
_cell_angle_gamma 120.00000

_space_group_name_Hall 'P 1'
_space_group_name_H-M_alt  'P 1'

loop_
_symmetry_equiv_pos_as_xyz
'x,y,z' 

loop_
_atom_site_label
_atom_site_type_symbol
_atom_site_fract_x
_atom_site_fract_y
_atom_site_fract_z
H          H       0.50353   0.66242   0.39533 
H          H       0.33758   0.84111   0.39533 
H          H       0.15889   0.49647   0.39533 
H          H       0.52025   0.35435   0.47575 
H          H       0.64565   0.16590   0.47575 
H          H       0.83410   0.47975   0.47575 
H          H       0.65873   0.49546   0.47694 
H          H       0.50454   0.16327   0.47694 
H          H       0.83673   0.34127   0.47694 
H          H       0.36207   0.52999   0.40642 
H          H       0.47001   0.83208   0.40642 
H          H       0.16792   0.63793   0.40642 
H          H       0.46679   0.40552   0.02545 
H          H       0.59448   0.06127   0.02545 
H          H       0.93873   0.53321   0.02545 
H          H       0.65823   0.59132   0.41846 
H          H       0.40868   0.06691   0.41846 
H          H       0.93309   0.34177   0.41846 
H          H       0.59238   0.65474   0.39197 
H          H       0.34526   0.93764   0.39197 
H          H       0.06236   0.40762   0.39197 
C          C       0.49229   0.56572   0.43751 
C          C       0.43428   0.92657   0.43751 
C          C       0.07343   0.50771   0.43751 
C          C       0.45710   0.49618   0.47983 
C          C       0.50382   0.96092   0.47983 
C          C       0.03908   0.54290   0.47983 
C          C       0.49411   0.46153   0.49278 
C          C       0.53847   0.03258   0.49278 
C          C       0.96742   0.50589   0.49278 
C          C       0.74086   0.37738   0.47776 
C          C       0.62262   0.36348   0.47776 
C          C       0.63652   0.25914   0.47776 
C          C       0.71149   0.30284   0.47712 
C          C       0.69716   0.40865   0.47712 
C          C       0.59135   0.28851   0.47712 
C          C       0.57852   0.39048   0.47563 
C          C       0.60952   0.18804   0.47563 
C          C       0.81196   0.42148   0.47563 
C          C       0.56478   0.49316   0.46687 
C          C       0.50684   0.07162   0.46687 
C          C       0.92838   0.43522   0.46687 
C          C       0.60001   0.56311   0.43367 
C          C       0.43689   0.03690   0.43367 
C          C       0.96310   0.39999   0.43367 
C          C       0.56396   0.59788   0.41940 
C          C       0.40212   0.96608   0.41940 
C          C       0.03392   0.43604   0.41940 
C          C       0.25944   0.63114   0.35718 
C          C       0.36886   0.62830   0.35718 
C          C       0.37170   0.74056   0.35718 
C          C       0.29751   0.70609   0.34723 
C          C       0.29391   0.59142   0.34723 
C          C       0.40858   0.70249   0.34723 
C          C       0.39711   0.58768   0.39001 
C          C       0.41232   0.80943   0.39001 
C          C       0.19057   0.60289   0.39001 
N          N       0.46350   0.60732   0.40632 
N          N       0.39268   0.85618   0.40632 
N          N       0.14382   0.53650   0.40632 
N          N       0.60235   0.45872   0.47340 
N          N       0.54128   0.14363   0.47340 
N          N       0.85637   0.39765   0.47340 
S          S       0.36626   0.44333   0.02194 
S          S       0.55667   0.92293   0.02194 
S          S       0.07707   0.63374   0.02194 
O          O       0.25963   0.52579   0.33251 
O          O       0.47421   0.73384   0.33251 
O          O       0.26616   0.74037   0.33251 
O          O       0.35867   0.38085   0.07718 
O          O       0.61915   0.97782   0.07718 
O          O       0.02218   0.64133   0.07718 
O          O       0.35188   0.48628   0.10992 
O          O       0.51372   0.86560   0.10992 
O          O       0.13440   0.64812   0.10992 
O          O       0.32793   0.43210   0.40280 
O          O       0.56790   0.89583   0.40280 
O          O       0.10417   0.67207   0.40280 
Li         Li      0.29710   0.46695   0.08465 
Li         Li      0.53305   0.83015   0.08465 
Li         Li      0.16985   0.70290   0.08465 
H          H       0.50353   0.66242   0.89533 
H          H       0.33758   0.84111   0.89533 
H          H       0.15889   0.49647   0.89533 
H          H       0.52025   0.35435   0.97575 
H          H       0.64565   0.16590   0.97575 
H          H       0.83410   0.47975   0.97575 
H          H       0.65873   0.49546   0.97694 
H          H       0.50454   0.16327   0.97694 
H          H       0.83673   0.34127   0.97694 
H          H       0.36207   0.52999   0.90642 
H          H       0.47001   0.83208   0.90642 
H          H       0.16792   0.63793   0.90642 
H          H       0.46679   0.40552   0.52545 
H          H       0.59448   0.06127   0.52545 
H          H       0.93873   0.53321   0.52545 
H          H       0.65823   0.59132   0.91846 
H          H       0.40868   0.06691   0.91846 
H          H       0.93309   0.34177   0.91846 
H          H       0.59238   0.65474   0.89197 
H          H       0.34526   0.93764   0.89197 
H          H       0.06236   0.40762   0.89197 
C          C       0.49229   0.56572   0.93751 
C          C       0.43428   0.92657   0.93751 
C          C       0.07343   0.50771   0.93751 
C          C       0.45710   0.49618   0.97984 
C          C       0.50382   0.96092   0.97984 
C          C       0.03908   0.54290   0.97984 
C          C       0.49411   0.46153   0.99277 
C          C       0.53847   0.03258   0.99277 
C          C       0.96742   0.50589   0.99277 
C          C       0.74086   0.37738   0.97776 
C          C       0.62262   0.36348   0.97776 
C          C       0.63652   0.25914   0.97776 
C          C       0.71149   0.30284   0.97712 
C          C       0.69716   0.40865   0.97712 
C          C       0.59135   0.28851   0.97712 
C          C       0.57852   0.39048   0.97563 
C          C       0.60952   0.18804   0.97563 
C          C       0.81196   0.42148   0.97563 
C          C       0.56478   0.49316   0.96687 
C          C       0.50684   0.07162   0.96687 
C          C       0.92838   0.43522   0.96687 
C          C       0.60001   0.56311   0.93368 
C          C       0.43689   0.03690   0.93368 
C          C       0.96310   0.39999   0.93368 
C          C       0.56396   0.59788   0.91940 
C          C       0.40212   0.96608   0.91940 
C          C       0.03392   0.43604   0.91940 
C          C       0.25944   0.63114   0.85718 
C          C       0.36886   0.62830   0.85718 
C          C       0.37170   0.74056   0.85718 
C          C       0.29751   0.70609   0.84723 
C          C       0.29391   0.59142   0.84723 
C          C       0.40858   0.70249   0.84723 
C          C       0.39711   0.58768   0.89001 
C          C       0.41232   0.80943   0.89001 
C          C       0.19057   0.60289   0.89001 
N          N       0.46350   0.60732   0.90632 
N          N       0.39268   0.85618   0.90632 
N          N       0.14382   0.53650   0.90632 
N          N       0.60235   0.45872   0.97340 
N          N       0.54128   0.14363   0.97340 
N          N       0.85637   0.39765   0.97340 
S          S       0.36626   0.44333   0.52194 
S          S       0.55667   0.92293   0.52194 
S          S       0.07707   0.63374   0.52194 
O          O       0.25963   0.52579   0.83251 
O          O       0.47421   0.73384   0.83251 
O          O       0.26616   0.74037   0.83251 
O          O       0.35867   0.38085   0.57718 
O          O       0.61915   0.97782   0.57718 
O          O       0.02218   0.64133   0.57718 
O          O       0.35188   0.48628   0.60992 
O          O       0.51372   0.86560   0.60992 
O          O       0.13440   0.64812   0.60992 
O          O       0.32793   0.43210   0.90280 
O          O       0.56790   0.89583   0.90280 
O          O       0.10417   0.67207   0.90280 
Li         Li      0.29710   0.46695   0.58465 
Li         Li      0.53305   0.83015   0.58465 
Li         Li      0.16985   0.70290   0.58465 
