data_crystal

_cell_length_a    26.20000
_cell_length_b    26.20000
_cell_length_c    4.20000
_cell_angle_alpha 90.00000
_cell_angle_beta  90.00000
_cell_angle_gamma 120.00000

_space_group_name_Hall 'P 1'
_space_group_name_H-M_alt  'P 1'

loop_
_symmetry_equiv_pos_as_xyz
'x,y,z' 

loop_
_atom_site_label
_atom_site_type_symbol
_atom_site_fract_x
_atom_site_fract_y
_atom_site_fract_z
C          C       0.52976   0.58671   0.30502 
C          C       0.48419   0.48674   0.33540 
C          C       0.47278   0.99486   0.27310 
C          C       0.57575   0.07780   0.36762 
C          C       0.04899   0.50725   0.30441 
C          C       0.98933   0.56400   0.35120 
C          C       0.23561   0.58244   0.62891 
C          C       0.80038   0.48087   0.00636 
C          C       0.45069   0.66868   0.63165 
C          C       0.57792   0.39739   0.00523 
C          C       0.36762   0.80161   0.62275 
C          C       0.67086   0.26081   0.01200 
C          C       0.29233   0.61579   0.76372 
C          C       0.74367   0.44752   0.87156 
C          C       0.42709   0.68853   0.76437 
C          C       0.61127   0.37403   0.87043 
C          C       0.34426   0.74490   0.75755 
C          C       0.69422   0.31753   0.87720 
C          C       0.55710   0.55959   0.14298 
C          C       0.45686   0.51385   0.49746 
C          C       0.49744   0.05811   0.16205 
C          C       0.55118   0.01204   0.47094 
C          C       0.99243   0.50332   0.14526 
C          C       0.04958   0.57204   0.50191 
C          C       0.43962   0.62861   0.72593 
C          C       0.58411   0.44132   0.91242 
C          C       0.41234   0.84136   0.71394 
C          C       0.62370   0.22404   0.92176 
C          C       0.19948   0.59414   0.71849 
C          C       0.83407   0.47005   0.91731 
C          C       0.48096   0.56119   0.48201 
C          C       0.53301   0.51226   0.15841 
C          C       0.49799   0.96584   0.45645 
C          C       0.54471   0.10442   0.16898 
C          C       0.08221   0.55042   0.46333 
C          C       0.96349   0.52550   0.17321 
C          C       0.46254   0.61299   0.56299 
C          C       0.55469   0.45647   0.07617 
C          C       0.43064   0.88153   0.54504 
C          C       0.60540   0.18107   0.09008 
C          C       0.15503   0.56516   0.55127 
C          C       0.88420   0.50468   0.08492 
N          N       0.45577   0.57870   0.64544 
N          N       0.56144   0.49359   0.99431 
N          N       0.47856   0.92153   0.62350 
N          N       0.56399   0.14714   0.01199 
N          N       0.12033   0.57395   0.62929 
N          N       0.91887   0.49869   0.00749 
H          H       0.55004   0.63697   0.29167 
H          H       0.46390   0.43647   0.34869 
H          H       0.96807   0.59156   0.40404 
H          H       0.22585   0.54574   0.44076 
H          H       0.80993   0.51705   0.19784 
H          H       0.48257   0.69391   0.41862 
H          H       0.54409   0.37230   0.21050 
H          H       0.34274   0.81026   0.41584 
H          H       0.69745   0.25129   0.20389 
H          H       0.33010   0.60951   0.66743 
H          H       0.70568   0.45308   0.97166 
H          H       0.44006   0.73674   0.71608 
H          H       0.60530   0.33019   0.96833 
H          H       0.30167   0.70653   0.65066 
H          H       0.73804   0.35541   0.97520 
H          H       0.60131   0.58777   0.00980 
H          H       0.41265   0.48568   0.63068 
H          H       0.52541   0.42699   0.28773 
H          H       0.40379   0.88173   0.32027 
H          H       0.63272   0.18016   0.31054 
H          H       0.15468   0.53438   0.34718 
H          H       0.88501   0.53606   0.28659 
C          C       0.60102   0.23468   0.68130 
C          C       0.82685   0.43433   0.67963 
C          C       0.61887   0.46676   0.67349 
C          C       0.62459   0.29115   0.54517 
C          C       0.77038   0.40141   0.54351 
C          C       0.65178   0.44318   0.53736 
C          C       0.64954   0.39704   0.63919 
C          C       0.66613   0.32622   0.64555 
C          C       0.73351   0.41161   0.64306 
H          H       0.55911   0.19607   0.56995 
H          H       0.86488   0.42892   0.57861 
H          H       0.62337   0.50954   0.56783 
H          H       0.60031   0.29957   0.33379 
H          H       0.76120   0.36639   0.34495 
H          H       0.68312   0.46648   0.31909 
P          P       0.68306   0.37900   0.44674 
C          C       0.43747   0.82774   0.95345 
C          C       0.21399   0.63143   0.95548 
C          C       0.40729   0.60650   0.96521 
C          C       0.41389   0.77127   0.08958 
C          C       0.27046   0.66435   0.09161 
C          C       0.37437   0.63007   0.10134 
C          C       0.38150   0.67235   0.99804 
C          C       0.36992   0.73707   0.98972 
C          C       0.30004   0.65259   0.99274 
H          H       0.48138   0.86555   0.05094 
H          H       0.17595   0.63679   0.05672 
H          H       0.40445   0.56493   0.07869 
H          H       0.43940   0.76225   0.29101 
H          H       0.27971   0.69958   0.28896 
H          H       0.34151   0.60568   0.31190 
P          P       0.35048   0.68734   0.18949 
H          H       0.42388   0.96994   0.18238 
H          H       0.62522   0.11640   0.39422 
H          H       0.06360   0.47052   0.28577 
H          H       0.46816   0.08411   0.01941 
H          H       0.57274   0.98884   0.64198 
H          H       0.97059   0.46495   0.02041 
H          H       0.06838   0.60785   0.64324 
H          H       0.49227   0.64111   0.29624 
