data_crystal

_cell_length_a    30.94800
_cell_length_b    30.94800
_cell_length_c    6.79620
_cell_angle_alpha 90.00000
_cell_angle_beta  90.00000
_cell_angle_gamma 120.00000

_space_group_name_Hall 'P 1'
_space_group_name_H-M_alt  'P 1'

loop_
_symmetry_equiv_pos_as_xyz
'x,y,z' 

loop_
_atom_site_label
_atom_site_type_symbol
_atom_site_fract_x
_atom_site_fract_y
_atom_site_fract_z
N          N       0.46701   0.25118   0.12651 
N          N       0.74882   0.21583   0.12651 
N          N       0.78417   0.53299   0.12651 
C          C       0.43517   0.20838   0.14514 
C          C       0.79162   0.22679   0.14514 
C          C       0.77321   0.56483   0.14514 
C          C       0.38365   0.18788   0.13443 
C          C       0.81212   0.19577   0.13443 
C          C       0.80423   0.61635   0.13443 
C          C       0.36515   0.21390   0.10228 
C          C       0.78610   0.15125   0.10228 
C          C       0.84875   0.63485   0.10228 
C          C       0.35136   0.14123   0.15646 
C          C       0.85877   0.21013   0.15646 
C          C       0.78987   0.64864   0.15646 
O          O       0.39410   0.25878   0.08015 
O          O       0.74122   0.13532   0.08015 
O          O       0.86468   0.60590   0.08015 
H          H       0.44587   0.18578   0.17067 
H          H       0.81422   0.26009   0.17067 
H          H       0.73991   0.55413   0.17067 
H          H       0.36514   0.12117   0.18100 
H          H       0.87883   0.24397   0.18100 
H          H       0.75603   0.63486   0.18100 
H          H       0.42798   0.26823   0.09090 
H          H       0.73177   0.15975   0.09090 
H          H       0.84025   0.57202   0.09090 
C          C       0.51687   0.26978   0.13496 
C          C       0.73022   0.24709   0.13496 
C          C       0.75291   0.48313   0.13496 
C          C       0.53831   0.24037   0.13860 
C          C       0.75963   0.29794   0.13860 
C          C       0.70206   0.46169   0.13860 
C          C       0.58801   0.26183   0.14702 
C          C       0.73817   0.32618   0.14702 
C          C       0.67382   0.41199   0.14702 
C          C       0.61675   0.31216   0.15209 
C          C       0.68784   0.30459   0.15209 
C          C       0.69541   0.38325   0.15209 
C          C       0.59571   0.34137   0.14659 
C          C       0.65863   0.25434   0.14659 
C          C       0.74566   0.40429   0.14659 
C          C       0.54615   0.32058   0.13770 
C          C       0.67942   0.22557   0.13770 
C          C       0.77443   0.45385   0.13770 
O          O       0.62386   0.39147   0.15033 
O          O       0.60853   0.23239   0.15033 
O          O       0.76761   0.37614   0.15033 
H          H       0.51714   0.20133   0.13335 
H          H       0.79867   0.31581   0.13335 
H          H       0.68419   0.48286   0.13335 
H          H       0.52995   0.34338   0.13364 
H          H       0.65662   0.18657   0.13364 
H          H       0.81343   0.47005   0.13364 
N          N       0.19966   0.08215   0.12349 
N          N       0.91785   0.11751   0.12349 
N          N       0.88249   0.80034   0.12349 
C          C       0.23149   0.12495   0.10486 
C          C       0.87505   0.10654   0.10486 
C          C       0.89346   0.76851   0.10486 
C          C       0.28302   0.14546   0.11557 
C          C       0.85454   0.13756   0.11557 
C          C       0.86244   0.71698   0.11557 
C          C       0.30151   0.11944   0.14772 
C          C       0.88056   0.18207   0.14772 
C          C       0.81793   0.69849   0.14772 
C          C       0.31531   0.19210   0.09354 
C          C       0.80790   0.12321   0.09354 
C          C       0.87679   0.68469   0.09354 
O          O       0.27257   0.07455   0.16984 
O          O       0.92545   0.19802   0.16984 
O          O       0.80198   0.72743   0.16984 
H          H       0.22080   0.14756   0.07933 
H          H       0.85244   0.07324   0.07933 
H          H       0.92676   0.77920   0.07933 
H          H       0.30153   0.21216   0.06900 
H          H       0.78784   0.08937   0.06900 
H          H       0.91063   0.69847   0.06900 
H          H       0.23869   0.06510   0.15909 
H          H       0.93490   0.17359   0.15909 
H          H       0.82641   0.76131   0.15909 
C          C       0.14980   0.06355   0.11504 
C          C       0.93645   0.08625   0.11504 
C          C       0.91375   0.85020   0.11504 
C          C       0.12835   0.09296   0.11140 
C          C       0.90704   0.03539   0.11140 
C          C       0.96461   0.87165   0.11140 
C          C       0.07866   0.07151   0.10297 
C          C       0.92849   0.00715   0.10297 
C          C       0.99285   0.92134   0.10297 
C          C       0.04992   0.02117   0.09791 
C          C       0.97883   0.02875   0.09791 
C          C       0.97125   0.95008   0.09791 
C          C       0.07096   0.99196   0.10341 
C          C       0.00804   0.07900   0.10341 
C          C       0.92100   0.92904   0.10341 
C          C       0.12052   0.01275   0.11230 
C          C       0.98725   0.10777   0.11230 
C          C       0.89223   0.87948   0.11230 
O          O       0.04281   0.94186   0.09966 
O          O       0.05814   0.10095   0.09966 
O          O       0.89905   0.95719   0.09966 
H          H       0.14953   0.13200   0.11665 
H          H       0.86800   0.01753   0.11665 
H          H       0.98247   0.85047   0.11665 
H          H       0.13672   0.98996   0.11636 
H          H       0.01004   0.14676   0.11636 
H          H       0.85324   0.86328   0.11636 
N          N       0.66667   0.33333   0.16116 
N          N       0.00000   0.00000   0.08884 
N          N       0.46701   0.25118   0.62651 
N          N       0.74882   0.21583   0.62651 
N          N       0.78417   0.53299   0.62651 
C          C       0.43517   0.20838   0.64514 
C          C       0.79162   0.22679   0.64514 
C          C       0.77321   0.56483   0.64514 
C          C       0.38365   0.18788   0.63443 
C          C       0.81212   0.19577   0.63443 
C          C       0.80423   0.61635   0.63443 
C          C       0.36515   0.21390   0.60227 
C          C       0.78610   0.15125   0.60227 
C          C       0.84875   0.63485   0.60227 
C          C       0.35136   0.14123   0.65646 
C          C       0.85877   0.21013   0.65646 
C          C       0.78987   0.64864   0.65646 
O          O       0.39410   0.25878   0.58015 
O          O       0.74122   0.13532   0.58015 
O          O       0.86468   0.60590   0.58015 
H          H       0.44587   0.18578   0.67068 
H          H       0.81422   0.26009   0.67068 
H          H       0.73991   0.55413   0.67068 
H          H       0.36514   0.12117   0.68100 
H          H       0.87883   0.24397   0.68100 
H          H       0.75603   0.63486   0.68100 
H          H       0.42798   0.26823   0.59091 
H          H       0.73177   0.15975   0.59091 
H          H       0.84025   0.57202   0.59091 
C          C       0.51687   0.26978   0.63496 
C          C       0.73022   0.24709   0.63496 
C          C       0.75291   0.48313   0.63496 
C          C       0.53831   0.24037   0.63860 
C          C       0.75963   0.29794   0.63860 
C          C       0.70206   0.46169   0.63860 
C          C       0.58801   0.26183   0.64702 
C          C       0.73817   0.32618   0.64702 
C          C       0.67382   0.41199   0.64702 
C          C       0.61675   0.31216   0.65209 
C          C       0.68784   0.30459   0.65209 
C          C       0.69541   0.38325   0.65209 
C          C       0.59571   0.34137   0.64659 
C          C       0.65863   0.25434   0.64659 
C          C       0.74566   0.40429   0.64659 
C          C       0.54615   0.32058   0.63770 
C          C       0.67942   0.22557   0.63770 
C          C       0.77443   0.45385   0.63770 
O          O       0.62386   0.39147   0.65033 
O          O       0.60853   0.23239   0.65033 
O          O       0.76761   0.37614   0.65033 
H          H       0.51714   0.20133   0.63335 
H          H       0.79867   0.31581   0.63335 
H          H       0.68419   0.48286   0.63335 
H          H       0.52995   0.34338   0.63364 
H          H       0.65662   0.18657   0.63364 
H          H       0.81343   0.47005   0.63364 
N          N       0.19966   0.08215   0.62349 
N          N       0.91785   0.11751   0.62349 
N          N       0.88249   0.80034   0.62349 
C          C       0.23149   0.12495   0.60486 
C          C       0.87505   0.10654   0.60486 
C          C       0.89346   0.76851   0.60486 
C          C       0.28302   0.14546   0.61557 
C          C       0.85454   0.13756   0.61557 
C          C       0.86244   0.71698   0.61557 
C          C       0.30151   0.11944   0.64772 
C          C       0.88056   0.18207   0.64772 
C          C       0.81793   0.69849   0.64772 
C          C       0.31531   0.19210   0.59354 
C          C       0.80790   0.12321   0.59354 
C          C       0.87679   0.68469   0.59354 
O          O       0.27257   0.07455   0.66984 
O          O       0.92545   0.19802   0.66984 
O          O       0.80198   0.72743   0.66984 
H          H       0.22080   0.14756   0.57932 
H          H       0.85244   0.07324   0.57932 
H          H       0.92676   0.77920   0.57932 
H          H       0.30153   0.21216   0.56900 
H          H       0.78784   0.08937   0.56900 
H          H       0.91063   0.69847   0.56900 
H          H       0.23869   0.06510   0.65909 
H          H       0.93490   0.17359   0.65909 
H          H       0.82641   0.76131   0.65909 
C          C       0.14980   0.06355   0.61504 
C          C       0.93645   0.08625   0.61504 
C          C       0.91375   0.85020   0.61504 
C          C       0.12835   0.09296   0.61140 
C          C       0.90704   0.03539   0.61140 
C          C       0.96461   0.87165   0.61140 
C          C       0.07866   0.07151   0.60297 
C          C       0.92849   0.00715   0.60297 
C          C       0.99285   0.92134   0.60297 
C          C       0.04992   0.02117   0.59791 
C          C       0.97883   0.02875   0.59791 
C          C       0.97125   0.95008   0.59791 
C          C       0.07096   0.99196   0.60341 
C          C       0.00804   0.07900   0.60341 
C          C       0.92100   0.92904   0.60341 
C          C       0.12052   0.01275   0.61230 
C          C       0.98725   0.10777   0.61230 
C          C       0.89223   0.87948   0.61230 
O          O       0.04281   0.94186   0.59966 
O          O       0.05814   0.10095   0.59966 
O          O       0.89905   0.95719   0.59966 
H          H       0.14953   0.13200   0.61665 
H          H       0.86800   0.01753   0.61665 
H          H       0.98247   0.85047   0.61665 
H          H       0.13672   0.98996   0.61636 
H          H       0.01004   0.14676   0.61636 
H          H       0.85324   0.86328   0.61636 
N          N       0.66667   0.33333   0.66116 
N          N       0.00000   0.00000   0.58884 
