data_crystal

_cell_length_a    37.63690
_cell_length_b    23.30790
_cell_length_c    9.28320
_cell_angle_alpha 72.02000
_cell_angle_beta  114.24000
_cell_angle_gamma 95.81000

_space_group_name_Hall 'P 1'
_space_group_name_H-M_alt  'P 1'

loop_
_symmetry_equiv_pos_as_xyz
'x,y,z' 

loop_
_atom_site_label
_atom_site_type_symbol
_atom_site_fract_x
_atom_site_fract_y
_atom_site_fract_z
C          C       0.12840   0.87110   0.17915 
C          C       0.12020   0.81270   0.26410 
C          C       0.13940   0.76040   0.27790 
C          C       0.16780   0.76550   0.21055 
C          C       0.17720   0.82390   0.13150 
C          C       0.15770   0.87620   0.11600 
C          C       0.27210   0.55470   0.18960 
C          C       0.27310   0.44240   0.22395 
C          C       0.33320   0.49910   0.21655 
C          C       0.36330   0.45370   0.33290 
C          C       0.40010   0.45170   0.32135 
C          C       0.40790   0.49540   0.19475 
C          C       0.37790   0.54080   0.07890 
C          C       0.34100   0.54210   0.08945 
C          C       0.29110   0.61110   0.18690 
C          C       0.27120   0.66260   0.17390 
C          C       0.23220   0.65920   0.16710 
C          C       0.21210   0.60460   0.16135 
C          C       0.23170   0.55340   0.17195 
C          C       0.24280   0.43550   0.07820 
C          C       0.22190   0.38170   0.08045 
C          C       0.23160   0.33310   0.22755 
C          C       0.26190   0.33990   0.37490 
C          C       0.28210   0.39470   0.37300 
N          N       0.21370   0.71180   0.16530 
N          N       0.20930   0.27870   0.22005 
C          C       0.18640   0.70930   0.22175 
C          C       0.14010   0.07680   0.24785 
C          C       0.17220   0.07000   0.40240 
C          C       0.19630   0.11930   0.43180 
C          C       0.18900   0.17580   0.30625 
C          C       0.15690   0.18220   0.15085 
C          C       0.13270   0.13310   0.12230 
C          C       0.21490   0.22730   0.33825 
C          C       0.55440   0.44990   0.09020 
C          C       0.55370   0.51320   0.03270 
C          C       0.52590   0.55010   0.03590 
C          C       0.49870   0.51880   0.10035 
C          C       0.49940   0.45540   0.15785 
C          C       0.52720   0.41850   0.15470 
C          C       0.11420   0.02530   0.21440 
C          C       0.07250   0.02810   0.17610 
C          C       0.04780   0.98220   0.11935 
C          C       0.06510   0.93230   0.10810 
C          C       0.10760   0.92680   0.16330 
C          C       0.13120   0.97430   0.21130 
C          C       0.05510   0.07510   0.19590 
C          C       0.01380   0.07860   0.15290 
C          C       0.98820   0.03630   0.08395 
C          C       0.00550   0.98640   0.07275 
C          C       0.98080   0.94050   0.01600 
C          C       0.99820   0.89350   0.49615 
C          C       0.03940   0.89000   0.03910 
C          C       0.94570   0.04180   0.02885 
C          C       0.92200   0.99430   0.48085 
C          C       0.93910   0.94330   0.47775 
C          C       0.91320   0.89180   0.44415 
C          C       0.88110   0.89870   0.28950 
C          C       0.85690   0.84940   0.25995 
C          C       0.86430   0.79290   0.38535 
C          C       0.89630   0.78640   0.04080 
C          C       0.92050   0.83540   0.06960 
C          C       0.78110   0.41400   0.00130 
C          C       0.78010   0.52630   0.46705 
C          C       0.72000   0.46960   0.47430 
C          C       0.68980   0.51500   0.35780 
C          C       0.65310   0.51700   0.36930 
C          C       0.64520   0.47330   0.49595 
C          C       0.67520   0.42790   0.11190 
C          C       0.71210   0.42660   0.10145 
C          C       0.76200   0.35760   0.00415 
C          C       0.78200   0.30610   0.01730 
C          C       0.82100   0.30950   0.02405 
C          C       0.84100   0.36410   0.02950 
C          C       0.82150   0.41540   0.01885 
C          C       0.81040   0.53310   0.11280 
C          C       0.83130   0.58690   0.11070 
C          C       0.82160   0.63560   0.46370 
C          C       0.79120   0.62880   0.31630 
C          C       0.77110   0.57410   0.31810 
N          N       0.83950   0.25690   0.02600 
N          N       0.84390   0.69000   0.47130 
C          C       0.83840   0.74140   0.35320 
C          C       0.92490   0.09750   0.01285 
C          C       0.93300   0.15590   0.42770 
C          C       0.91380   0.20820   0.41365 
C          C       0.88540   0.20320   0.48095 
C          C       0.87600   0.14470   0.06030 
C          C       0.89560   0.09240   0.07600 
C          C       0.86680   0.25940   0.46945 
H          H       0.09890   0.80760   0.31990 
H          H       0.13200   0.71590   0.34170 
H          H       0.19920   0.82930   0.07890 
H          H       0.16520   0.92060   0.05335 
H          H       0.35900   0.41980   0.43405 
H          H       0.42240   0.41590   0.41225 
H          H       0.31840   0.57690   0.49850 
H          H       0.32230   0.61520   0.20600 
H          H       0.28690   0.70460   0.17700 
H          H       0.21490   0.51230   0.17050 
H          H       0.23500   0.47240   0.46345 
H          H       0.19840   0.37750   0.46630 
H          H       0.30400   0.40010   0.48840 
H          H       0.17840   0.02680   0.00050 
H          H       0.22080   0.11330   0.05255 
H          H       0.15060   0.22500   0.05110 
H          H       0.10820   0.13900   0.00180 
H          H       0.52550   0.59960   0.49130 
H          H       0.52760   0.36910   0.19925 
H          H       0.16360   0.97130   0.24870 
H          H       0.07330   0.10920   0.24680 
H          H       0.00240   0.11470   0.17590 
H          H       0.98000   0.85940   0.44530 
H          H       0.05080   0.85400   0.01605 
H          H       0.88970   0.99730   0.44345 
H          H       0.87490   0.94180   0.19155 
H          H       0.83250   0.85540   0.13915 
H          H       0.90270   0.74360   0.14045 
H          H       0.94500   0.82960   0.19010 
H          H       0.69410   0.54890   0.25660 
H          H       0.63070   0.55270   0.27835 
H          H       0.73480   0.39190   0.19255 
H          H       0.73080   0.35350   0.48505 
H          H       0.76620   0.26410   0.01445 
H          H       0.83820   0.45640   0.02020 
H          H       0.81820   0.49620   0.22745 
H          H       0.85490   0.59110   0.22485 
H          H       0.74910   0.56870   0.20270 
H          H       0.95430   0.16100   0.37195 
H          H       0.92120   0.25270   0.34970 
H          H       0.85400   0.13940   0.11285 
H          H       0.88810   0.04810   0.13880 
N          N       0.29370   0.49890   0.21940 
H          H       0.38230   0.57410   0.47640 
H          H       0.18120   0.60120   0.14865 
H          H       0.26970   0.30430   0.49220 
H          H       0.67090   0.39470   0.21445 
H          H       0.87190   0.36750   0.04215 
H          H       0.78340   0.66450   0.19915 
N          N       0.75940   0.46980   0.47150 
H          H       0.23870   0.22090   0.46020 
H          H       0.81460   0.74780   0.23115 
H          H       0.87600   0.30310   0.41025 
H          H       0.17720   0.66550   0.28070 
C          C       0.46590   0.44010   0.20720 
N          N       0.44540   0.49220   0.17930 
C          C       0.46500   0.54050   0.11680 
C          C       0.58720   0.52860   0.48340 
N          N       0.60780   0.47650   0.01130 
C          C       0.58810   0.42820   0.07380 
O          O       0.45570   0.59420   0.08260 
O          O       0.45600   0.38830   0.25745 
O          O       0.59710   0.58040   0.43310 
O          O       0.59740   0.37450   0.10810 
C          C       0.12840   0.87110   0.67915 
C          C       0.12020   0.81270   0.76410 
C          C       0.13940   0.76040   0.77790 
C          C       0.16780   0.76550   0.71055 
C          C       0.17720   0.82390   0.63150 
C          C       0.15770   0.87620   0.61600 
C          C       0.27210   0.55470   0.68960 
C          C       0.27310   0.44240   0.72395 
C          C       0.33320   0.49910   0.71655 
C          C       0.36330   0.45370   0.83290 
C          C       0.40010   0.45170   0.82135 
C          C       0.40790   0.49540   0.69475 
C          C       0.37790   0.54080   0.57890 
C          C       0.34100   0.54210   0.58945 
C          C       0.29110   0.61110   0.68690 
C          C       0.27120   0.66260   0.67390 
C          C       0.23220   0.65920   0.66710 
C          C       0.21210   0.60460   0.66135 
C          C       0.23170   0.55340   0.67195 
C          C       0.24280   0.43550   0.57820 
C          C       0.22190   0.38170   0.58045 
C          C       0.23160   0.33310   0.72755 
C          C       0.26190   0.33990   0.87490 
C          C       0.28210   0.39470   0.87300 
N          N       0.21370   0.71180   0.66530 
N          N       0.20930   0.27870   0.72005 
C          C       0.18640   0.70930   0.72175 
C          C       0.14010   0.07680   0.74785 
C          C       0.17220   0.07000   0.90240 
C          C       0.19630   0.11930   0.93180 
C          C       0.18900   0.17580   0.80625 
C          C       0.15690   0.18220   0.65085 
C          C       0.13270   0.13310   0.62230 
C          C       0.21490   0.22730   0.83825 
C          C       0.55440   0.44990   0.59020 
C          C       0.55370   0.51320   0.53270 
C          C       0.52590   0.55010   0.53590 
C          C       0.49870   0.51880   0.60035 
C          C       0.49940   0.45540   0.65785 
C          C       0.52720   0.41850   0.65470 
C          C       0.11420   0.02530   0.71440 
C          C       0.07250   0.02810   0.67610 
C          C       0.04780   0.98220   0.61935 
C          C       0.06510   0.93230   0.60810 
C          C       0.10760   0.92680   0.66330 
C          C       0.13120   0.97430   0.71130 
C          C       0.05510   0.07510   0.69590 
C          C       0.01380   0.07860   0.65290 
C          C       0.98820   0.03630   0.58395 
C          C       0.00550   0.98640   0.57275 
C          C       0.98080   0.94050   0.51600 
C          C       0.99820   0.89350   0.99615 
C          C       0.03940   0.89000   0.53910 
C          C       0.94570   0.04180   0.52885 
C          C       0.92200   0.99430   0.98085 
C          C       0.93910   0.94330   0.97775 
C          C       0.91320   0.89180   0.94415 
C          C       0.88110   0.89870   0.78950 
C          C       0.85690   0.84940   0.75995 
C          C       0.86430   0.79290   0.88535 
C          C       0.89630   0.78640   0.54080 
C          C       0.92050   0.83540   0.56960 
C          C       0.78110   0.41400   0.50130 
C          C       0.78010   0.52630   0.96705 
C          C       0.72000   0.46960   0.97430 
C          C       0.68980   0.51500   0.85780 
C          C       0.65310   0.51700   0.86930 
C          C       0.64520   0.47330   0.99595 
C          C       0.67520   0.42790   0.61190 
C          C       0.71210   0.42660   0.60145 
C          C       0.76200   0.35760   0.50415 
C          C       0.78200   0.30610   0.51730 
C          C       0.82100   0.30950   0.52405 
C          C       0.84100   0.36410   0.52950 
C          C       0.82150   0.41540   0.51885 
C          C       0.81040   0.53310   0.61280 
C          C       0.83130   0.58690   0.61070 
C          C       0.82160   0.63560   0.96370 
C          C       0.79120   0.62880   0.81630 
C          C       0.77110   0.57410   0.81810 
N          N       0.83950   0.25690   0.52600 
N          N       0.84390   0.69000   0.97130 
C          C       0.83840   0.74140   0.85320 
C          C       0.92490   0.09750   0.51285 
C          C       0.93300   0.15590   0.92770 
C          C       0.91380   0.20820   0.91365 
C          C       0.88540   0.20320   0.98095 
C          C       0.87600   0.14470   0.56030 
C          C       0.89560   0.09240   0.57600 
C          C       0.86680   0.25940   0.96945 
H          H       0.09890   0.80760   0.81990 
H          H       0.13200   0.71590   0.84170 
H          H       0.19920   0.82930   0.57890 
H          H       0.16520   0.92060   0.55335 
H          H       0.35900   0.41980   0.93405 
H          H       0.42240   0.41590   0.91225 
H          H       0.31840   0.57690   0.99850 
H          H       0.32230   0.61520   0.70600 
H          H       0.28690   0.70460   0.67700 
H          H       0.21490   0.51230   0.67050 
H          H       0.23500   0.47240   0.96345 
H          H       0.19840   0.37750   0.96630 
H          H       0.30400   0.40010   0.98840 
H          H       0.17840   0.02680   0.50050 
H          H       0.22080   0.11330   0.55255 
H          H       0.15060   0.22500   0.55110 
H          H       0.10820   0.13900   0.50180 
H          H       0.52550   0.59960   0.99130 
H          H       0.52760   0.36910   0.69925 
H          H       0.16360   0.97130   0.74870 
H          H       0.07330   0.10920   0.74680 
H          H       0.00240   0.11470   0.67590 
H          H       0.98000   0.85940   0.94530 
H          H       0.05080   0.85400   0.51605 
H          H       0.88970   0.99730   0.94345 
H          H       0.87490   0.94180   0.69155 
H          H       0.83250   0.85540   0.63915 
H          H       0.90270   0.74360   0.64045 
H          H       0.94500   0.82960   0.69010 
H          H       0.69410   0.54890   0.75660 
H          H       0.63070   0.55270   0.77835 
H          H       0.73480   0.39190   0.69255 
H          H       0.73080   0.35350   0.98505 
H          H       0.76620   0.26410   0.51445 
H          H       0.83820   0.45640   0.52020 
H          H       0.81820   0.49620   0.72745 
H          H       0.85490   0.59110   0.72485 
H          H       0.74910   0.56870   0.70270 
H          H       0.95430   0.16100   0.87195 
H          H       0.92120   0.25270   0.84970 
H          H       0.85400   0.13940   0.61285 
H          H       0.88810   0.04810   0.63880 
N          N       0.29370   0.49890   0.71940 
H          H       0.38230   0.57410   0.97640 
H          H       0.18120   0.60120   0.64865 
H          H       0.26970   0.30430   0.99220 
H          H       0.67090   0.39470   0.71445 
H          H       0.87190   0.36750   0.54215 
H          H       0.78340   0.66450   0.69915 
N          N       0.75940   0.46980   0.97150 
H          H       0.23870   0.22090   0.96020 
H          H       0.81460   0.74780   0.73115 
H          H       0.87600   0.30310   0.91025 
H          H       0.17720   0.66550   0.78070 
C          C       0.46590   0.44010   0.70720 
N          N       0.44540   0.49220   0.67930 
C          C       0.46500   0.54050   0.61680 
C          C       0.58720   0.52860   0.98340 
N          N       0.60780   0.47650   0.51130 
C          C       0.58810   0.42820   0.57380 
O          O       0.45570   0.59420   0.58260 
O          O       0.45600   0.38830   0.75745 
O          O       0.59710   0.58040   0.93310 
O          O       0.59740   0.37450   0.60810 
