data_crystal

_cell_length_a    37.18650
_cell_length_b    22.81310
_cell_length_c    9.41500
_cell_angle_alpha 71.66000
_cell_angle_beta  118.17000
_cell_angle_gamma 94.46000

_space_group_name_Hall 'P 1'
_space_group_name_H-M_alt  'P 1'

loop_
_symmetry_equiv_pos_as_xyz
'x,y,z' 

loop_
_atom_site_label
_atom_site_type_symbol
_atom_site_fract_x
_atom_site_fract_y
_atom_site_fract_z
C          C       0.13153   0.86988   0.18642 
C          C       0.12624   0.80990   0.26596 
C          C       0.14736   0.75866   0.27702 
C          C       0.17506   0.76626   0.21382 
C          C       0.18130   0.82626   0.13850 
C          C       0.15983   0.87728   0.12579 
C          C       0.27950   0.53948   0.23995 
C          C       0.27545   0.42736   0.26810 
C          C       0.33754   0.47209   0.27234 
C          C       0.36634   0.41998   0.38760 
C          C       0.40273   0.41092   0.38374 
C          C       0.41140   0.45392   0.26590 
C          C       0.38298   0.50606   0.15172 
C          C       0.34631   0.51420   0.15355 
C          C       0.30145   0.59174   0.24736 
C          C       0.28392   0.64719   0.23196 
C          C       0.24439   0.65195   0.21294 
C          C       0.22188   0.60100   0.20270 
C          C       0.23901   0.54586   0.21467 
C          C       0.24363   0.42283   0.11522 
C          C       0.22120   0.37206   0.11309 
C          C       0.23065   0.32435   0.26315 
C          C       0.26222   0.32935   0.41764 
C          C       0.28400   0.38104   0.41973 
N          N       0.22756   0.70995   0.20676 
N          N       0.44967   0.44351   0.26178 
N          N       0.20748   0.27221   0.25094 
C          C       0.19466   0.71232   0.22120 
C          C       0.13938   0.07415   0.26682 
C          C       0.17238   0.06649   0.42936 
C          C       0.19600   0.11494   0.46337 
C          C       0.18731   0.17141   0.33484 
C          C       0.15424   0.17887   0.17187 
C          C       0.13044   0.13066   0.13857 
C          C       0.21337   0.22141   0.37166 
C          C       0.55357   0.42477   0.17351 
C          C       0.55985   0.47706   0.06746 
C          C       0.53259   0.53119   0.49378 
C          C       0.49961   0.53222   0.02522 
C          C       0.49333   0.47997   0.13118 
C          C       0.52055   0.42582   0.20496 
C          C       0.45823   0.48377   0.15478 
C          C       0.11421   0.02327   0.22813 
C          C       0.07217   0.02684   0.18450 
C          C       0.04785   0.98145   0.12391 
C          C       0.06611   0.93115   0.11413 
C          C       0.10923   0.92496   0.17361 
C          C       0.13228   0.97210   0.22541 
C          C       0.05401   0.07433   0.20209 
C          C       0.01227   0.07898   0.15292 
C          C       0.98672   0.03746   0.07919 
C          C       0.00501   0.98689   0.07079 
C          C       0.98058   0.94173   0.00954 
C          C       0.99877   0.89403   0.49278 
C          C       0.04052   0.88946   0.04129 
C          C       0.94349   0.04463   0.01583 
C          C       0.92022   0.99787   0.46332 
C          C       0.93835   0.94607   0.46332 
C          C       0.91291   0.89557   0.42402 
C          C       0.87980   0.90368   0.26147 
C          C       0.85558   0.85574   0.22751 
C          C       0.86379   0.79947   0.35631 
C          C       0.89702   0.79165   0.01920 
C          C       0.92140   0.83926   0.05236 
C          C       0.77661   0.43006   0.46063 
C          C       0.77653   0.54258   0.42940 
C          C       0.71585   0.49240   0.42459 
C          C       0.68562   0.54251   0.30655 
C          C       0.64891   0.54901   0.31002 
C          C       0.64136   0.50540   0.43044 
C          C       0.67111   0.45498   0.04699 
C          C       0.70804   0.44926   0.04494 
C          C       0.75677   0.37580   0.45447 
C          C       0.77637   0.32229   0.46885 
C          C       0.81571   0.32176   0.48493 
C          C       0.83654   0.37425   0.49874 
C          C       0.81738   0.42735   0.48729 
C          C       0.80780   0.54837   0.08171 
C          C       0.82938   0.60003   0.08243 
C          C       0.81958   0.64746   0.43151 
C          C       0.78818   0.64167   0.27775 
C          C       0.76733   0.58902   0.27706 
N          N       0.83390   0.26734   0.48851 
N          N       0.60287   0.51391   0.43466 
N          N       0.84266   0.69971   0.44204 
C          C       0.83726   0.74986   0.32019 
C          C       0.59510   0.47371   0.04444 
C          C       0.92140   0.10161   0.49406 
C          C       0.92802   0.15971   0.40991 
C          C       0.90785   0.21335   0.39093 
C          C       0.87985   0.21006   0.45180 
C          C       0.87175   0.15198   0.02948 
C          C       0.89244   0.09826   0.05061 
C          C       0.86054   0.26771   0.43654 
H          H       0.10461   0.80275   0.32205 
H          H       0.14207   0.71019   0.33791 
H          H       0.20398   0.83335   0.08749 
H          H       0.16554   0.92548   0.06515 
H          H       0.36012   0.38459   0.48551 
H          H       0.42557   0.36831   0.47691 
H          H       0.32326   0.55610   0.05588 
H          H       0.33407   0.58908   0.26621 
H          H       0.30187   0.68910   0.23484 
H          H       0.21968   0.50552   0.20366 
H          H       0.23589   0.46078   0.49134 
H          H       0.19490   0.36917   0.48830 
H          H       0.30883   0.38562   0.04521 
H          H       0.18004   0.02063   0.03442 
H          H       0.22252   0.10870   0.09618 
H          H       0.14674   0.22448   0.06614 
H          H       0.10360   0.13746   0.00611 
H          H       0.57551   0.38069   0.23535 
H          H       0.53741   0.57436   0.40817 
H          H       0.47767   0.57631   0.46339 
H          H       0.51571   0.38269   0.29060 
H          H       0.16653   0.96793   0.26588 
H          H       0.07357   0.10976   0.25737 
H          H       0.99826   0.11686   0.17217 
H          H       0.97927   0.85832   0.43875 
H          H       0.05393   0.85117   0.02121 
H          H       0.88578   0.00162   0.41941 
H          H       0.87254   0.94944   0.15647 
H          H       0.82901   0.86225   0.09466 
H          H       0.90416   0.74620   0.12506 
H          H       0.94835   0.83217   0.18475 
H          H       0.69095   0.57837   0.20661 
H          H       0.62486   0.59003   0.21439 
H          H       0.73250   0.40893   0.14239 
H          H       0.72426   0.37519   0.43752 
H          H       0.76022   0.27864   0.46751 
H          H       0.83463   0.46969   0.49948 
H          H       0.81581   0.51071   0.20637 
H          H       0.85529   0.60389   0.20681 
H          H       0.74271   0.58372   0.15215 
H          H       0.95004   0.16330   0.35645 
H          H       0.91410   0.26030   0.32554 
H          H       0.84824   0.14853   0.07557 
H          H       0.88564   0.05149   0.11432 
N          N       0.29850   0.47988   0.26804 
H          H       0.38979   0.54209   0.05670 
H          H       0.18935   0.60437   0.18448 
H          H       0.27008   0.29120   0.04133 
H          H       0.66519   0.41844   0.14398 
H          H       0.86939   0.37370   0.01948 
H          H       0.77973   0.67991   0.15358 
N          N       0.75538   0.48805   0.43056 
H          H       0.23871   0.21533   0.00652 
H          H       0.81203   0.75559   0.18535 
H          H       0.86947   0.31334   0.37754 
H          H       0.17884   0.66899   0.24166 
H          H       0.43413   0.52571   0.07432 
H          H       0.61979   0.43257   0.12757 
C          C       0.13153   0.86988   0.68642 
C          C       0.12624   0.80990   0.76597 
C          C       0.14736   0.75866   0.77702 
C          C       0.17506   0.76626   0.71382 
C          C       0.18130   0.82626   0.63849 
C          C       0.15983   0.87728   0.62578 
C          C       0.27950   0.53948   0.73995 
C          C       0.27545   0.42736   0.76810 
C          C       0.33754   0.47209   0.77234 
C          C       0.36634   0.41998   0.88760 
C          C       0.40273   0.41092   0.88374 
C          C       0.41140   0.45392   0.76590 
C          C       0.38298   0.50606   0.65172 
C          C       0.34631   0.51420   0.65355 
C          C       0.30145   0.59174   0.74736 
C          C       0.28392   0.64719   0.73196 
C          C       0.24439   0.65195   0.71294 
C          C       0.22188   0.60100   0.70270 
C          C       0.23901   0.54586   0.71467 
C          C       0.24363   0.42283   0.61522 
C          C       0.22120   0.37206   0.61309 
C          C       0.23065   0.32435   0.76315 
C          C       0.26222   0.32935   0.91764 
C          C       0.28400   0.38104   0.91973 
N          N       0.22756   0.70995   0.70676 
N          N       0.44967   0.44351   0.76178 
N          N       0.20748   0.27221   0.75094 
C          C       0.19466   0.71232   0.72120 
C          C       0.13938   0.07415   0.76682 
C          C       0.17238   0.06649   0.92936 
C          C       0.19600   0.11494   0.96337 
C          C       0.18731   0.17141   0.83484 
C          C       0.15424   0.17887   0.67187 
C          C       0.13044   0.13066   0.63857 
C          C       0.21337   0.22141   0.87166 
C          C       0.55357   0.42477   0.67351 
C          C       0.55985   0.47706   0.56746 
C          C       0.53259   0.53119   0.99378 
C          C       0.49961   0.53222   0.52522 
C          C       0.49333   0.47997   0.63118 
C          C       0.52055   0.42582   0.70496 
C          C       0.45823   0.48377   0.65478 
C          C       0.11421   0.02327   0.72813 
C          C       0.07217   0.02684   0.68450 
C          C       0.04785   0.98145   0.62391 
C          C       0.06611   0.93115   0.61413 
C          C       0.10923   0.92496   0.67361 
C          C       0.13228   0.97210   0.72541 
C          C       0.05401   0.07433   0.70209 
C          C       0.01227   0.07898   0.65292 
C          C       0.98672   0.03746   0.57919 
C          C       0.00501   0.98689   0.57079 
C          C       0.98058   0.94173   0.50954 
C          C       0.99877   0.89403   0.99278 
C          C       0.04052   0.88946   0.54129 
C          C       0.94349   0.04463   0.51583 
C          C       0.92022   0.99787   0.96332 
C          C       0.93835   0.94607   0.96332 
C          C       0.91291   0.89557   0.92402 
C          C       0.87980   0.90368   0.76146 
C          C       0.85558   0.85574   0.72751 
C          C       0.86379   0.79947   0.85631 
C          C       0.89702   0.79165   0.51920 
C          C       0.92140   0.83926   0.55236 
C          C       0.77661   0.43006   0.96063 
C          C       0.77653   0.54258   0.92940 
C          C       0.71585   0.49240   0.92459 
C          C       0.68562   0.54251   0.80655 
C          C       0.64891   0.54901   0.81002 
C          C       0.64136   0.50540   0.93044 
C          C       0.67111   0.45498   0.54699 
C          C       0.70804   0.44926   0.54494 
C          C       0.75677   0.37580   0.95447 
C          C       0.77637   0.32229   0.96885 
C          C       0.81571   0.32176   0.98493 
C          C       0.83654   0.37425   0.99874 
C          C       0.81738   0.42735   0.98729 
C          C       0.80780   0.54837   0.58171 
C          C       0.82938   0.60003   0.58243 
C          C       0.81958   0.64746   0.93150 
C          C       0.78818   0.64167   0.77775 
C          C       0.76733   0.58902   0.77706 
N          N       0.83390   0.26734   0.98851 
N          N       0.60287   0.51391   0.93466 
N          N       0.84266   0.69971   0.94204 
C          C       0.83726   0.74986   0.82019 
C          C       0.59510   0.47371   0.54444 
C          C       0.92140   0.10161   0.99405 
C          C       0.92802   0.15971   0.90991 
C          C       0.90785   0.21335   0.89093 
C          C       0.87985   0.21006   0.95180 
C          C       0.87175   0.15198   0.52948 
C          C       0.89244   0.09826   0.55061 
C          C       0.86054   0.26771   0.93653 
H          H       0.10461   0.80275   0.82205 
H          H       0.14207   0.71019   0.83791 
H          H       0.20398   0.83335   0.58749 
H          H       0.16554   0.92548   0.56515 
H          H       0.36012   0.38459   0.98551 
H          H       0.42557   0.36831   0.97691 
H          H       0.32326   0.55610   0.55588 
H          H       0.33407   0.58908   0.76621 
H          H       0.30187   0.68910   0.73484 
H          H       0.21968   0.50552   0.70366 
H          H       0.23589   0.46078   0.99134 
H          H       0.19490   0.36917   0.98830 
H          H       0.30883   0.38562   0.54521 
H          H       0.18004   0.02063   0.53442 
H          H       0.22252   0.10870   0.59618 
H          H       0.14674   0.22448   0.56614 
H          H       0.10360   0.13746   0.50611 
H          H       0.57551   0.38069   0.73535 
H          H       0.53741   0.57436   0.90817 
H          H       0.47767   0.57631   0.96339 
H          H       0.51571   0.38269   0.79060 
H          H       0.16653   0.96793   0.76588 
H          H       0.07357   0.10976   0.75737 
H          H       0.99826   0.11686   0.67217 
H          H       0.97927   0.85832   0.93875 
H          H       0.05393   0.85117   0.52121 
H          H       0.88578   0.00162   0.91941 
H          H       0.87254   0.94944   0.65647 
H          H       0.82901   0.86225   0.59466 
H          H       0.90416   0.74620   0.62506 
H          H       0.94835   0.83217   0.68475 
H          H       0.69095   0.57837   0.70661 
H          H       0.62486   0.59003   0.71439 
H          H       0.73250   0.40893   0.64239 
H          H       0.72426   0.37519   0.93752 
H          H       0.76022   0.27864   0.96751 
H          H       0.83463   0.46969   0.99947 
H          H       0.81581   0.51071   0.70637 
H          H       0.85529   0.60389   0.70681 
H          H       0.74271   0.58372   0.65216 
H          H       0.95004   0.16330   0.85645 
H          H       0.91410   0.26030   0.82553 
H          H       0.84824   0.14853   0.57557 
H          H       0.88564   0.05149   0.61432 
N          N       0.29850   0.47988   0.76804 
H          H       0.38979   0.54209   0.55670 
H          H       0.18935   0.60437   0.68448 
H          H       0.27008   0.29120   0.54133 
H          H       0.66519   0.41844   0.64398 
H          H       0.86939   0.37370   0.51948 
H          H       0.77973   0.67991   0.65358 
N          N       0.75538   0.48805   0.93056 
H          H       0.23871   0.21533   0.50652 
H          H       0.81203   0.75559   0.68535 
H          H       0.86947   0.31334   0.87754 
H          H       0.17884   0.66899   0.74166 
H          H       0.43413   0.52571   0.57431 
H          H       0.61979   0.43257   0.62757 
