data_crystal

_cell_length_a    59.33320
_cell_length_b    60.01540
_cell_length_c    7.11540
_cell_angle_alpha 91.17000
_cell_angle_beta  89.80000
_cell_angle_gamma 118.94000

_space_group_name_Hall 'P 1'
_space_group_name_H-M_alt  'P 1'

loop_
_symmetry_equiv_pos_as_xyz
'x,y,z' 

loop_
_atom_site_label
_atom_site_type_symbol
_atom_site_fract_x
_atom_site_fract_y
_atom_site_fract_z
C          C       0.34850   0.68416   0.34626 
N          N       0.35828   0.62696   0.35658 
N          N       0.36417   0.59331   0.35136 
C          C       0.38361   0.63526   0.38333 
C          C       0.37925   0.56037   0.33188 
C          C       0.39234   0.52781   0.33132 
C          C       0.42524   0.57183   0.29613 
C          C       0.43844   0.53871   0.29999 
C          C       0.46206   0.47231   0.29321 
C          C       0.49711   0.51688   0.29115 
C          C       0.45210   0.50703   0.29854 
C          C       0.30665   0.64578   0.32926 
N          N       0.36363   0.71142   0.34891 
N          N       0.39708   0.75015   0.36451 
C          C       0.35480   0.72813   0.32760 
C          C       0.42972   0.79726   0.38401 
C          C       0.46218   0.84185   0.37025 
C          C       0.41753   0.83045   0.41646 
C          C       0.44969   0.87599   0.40027 
C          C       0.51410   0.96456   0.39092 
C          C       0.46946   0.95456   0.40195 
C          C       0.48045   0.92047   0.39156 
C          C       0.34588   0.64236   0.34917 
N          N       0.27908   0.63385   0.31838 
N          N       0.23955   0.62856   0.31272 
C          C       0.26265   0.60865   0.30271 
C          C       0.19158   0.61440   0.31603 
C          C       0.14625   0.60277   0.31078 
C          C       0.15855   0.56993   0.33014 
C          C       0.11228   0.55709   0.32301 
C          C       0.02227   0.53362   0.31720 
C          C       0.03315   0.49967   0.31683 
C          C       0.06709   0.54376   0.31888 
C          C       0.65083   0.28945   0.26913 
N          N       0.64096   0.34660   0.29984 
N          N       0.63500   0.38020   0.30673 
C          C       0.61562   0.33825   0.32549 
C          C       0.61997   0.41328   0.29899 
C          C       0.60736   0.44622   0.31157 
C          C       0.57497   0.40223   0.26227 
C          C       0.56115   0.43499   0.27807 
C          C       0.53723   0.50119   0.29611 
C          C       0.50223   0.45660   0.28036 
C          C       0.54727   0.46654   0.28861 
C          C       0.69265   0.32787   0.26259 
N          N       0.63573   0.26220   0.26334 
N          N       0.60229   0.22346   0.26742 
C          C       0.64457   0.24550   0.23592 
C          C       0.56965   0.17634   0.27236 
C          C       0.53719   0.13176   0.24535 
C          C       0.58185   0.14316   0.29234 
C          C       0.54968   0.09762   0.26258 
C          C       0.48526   0.00905   0.22664 
C          C       0.52990   0.01905   0.23835 
C          C       0.51892   0.05313   0.24047 
C          C       0.65340   0.33123   0.28625 
N          N       0.72022   0.33981   0.25404 
N          N       0.75976   0.34511   0.24794 
C          C       0.73665   0.36501   0.24566 
C          C       0.80773   0.35927   0.25353 
C          C       0.85306   0.37088   0.24960 
C          C       0.84077   0.40374   0.28112 
C          C       0.88704   0.41656   0.27567 
C          C       0.97705   0.44001   0.27266 
C          C       0.96617   0.47396   0.28457 
C          C       0.93223   0.42987   0.27352 
H          H       0.31155   0.68445   0.32793 
H          H       0.40526   0.61214   0.39920 
H          H       0.43252   0.76654   0.01386 
H          H       0.35222   0.51951   0.35970 
H          H       0.44632   0.58665   0.27753 
H          H       0.45950   0.55393   0.28831 
H          H       0.45530   0.45100   0.29196 
H          H       0.48464   0.54595   0.29560 
H          H       0.32527   0.59008   0.31113 
H          H       0.40093   0.65531   0.40129 
H          H       0.43433   0.76659   0.25028 
H          H       0.38684   0.50667   0.33684 
H          H       0.41069   0.59967   0.29022 
H          H       0.42371   0.46719   0.29595 
H          H       0.51874   0.53214   0.28413 
H          H       0.30714   0.60928   0.33144 
H          H       0.37740   0.77200   0.32475 
H          H       0.22225   0.64862   0.44170 
H          H       0.47108   0.81043   0.34489 
H          H       0.40197   0.83621   0.43759 
H          H       0.43380   0.88140   0.41488 
H          H       0.53542   0.97925   0.38783 
H          H       0.44056   0.91392   0.40198 
H          H       0.40141   0.71515   0.38553 
H          H       0.33480   0.72557   0.30113 
H          H       0.22267   0.64762   0.17783 
H          H       0.48332   0.85711   0.34958 
H          H       0.39009   0.78959   0.42602 
H          H       0.52179   0.93222   0.37657 
H          H       0.45420   0.96089   0.40316 
H          H       0.38236   0.67857   0.36530 
H          H       0.21830   0.58756   0.28603 
H          H       0.34526   0.55668   0.47006 
H          H       0.17754   0.64223   0.29967 
H          H       0.15309   0.54897   0.33911 
H          H       0.10717   0.53619   0.32792 
H          H       0.00714   0.54014   0.31699 
H          H       0.07443   0.51110   0.31873 
H          H       0.27471   0.66746   0.33192 
H          H       0.26596   0.59150   0.28900 
H          H       0.34485   0.55834   0.20733 
H          H       0.13092   0.60897   0.29968 
H          H       0.20034   0.58298   0.33127 
H          H       0.05459   0.57270   0.31447 
H          H       0.02783   0.47860   0.31179 
H          H       0.68780   0.28921   0.24832 
H          H       0.59391   0.36131   0.35098 
H          H       0.56682   0.20705   0.41286 
H          H       0.64735   0.45410   0.34108 
H          H       0.55400   0.38716   0.23911 
H          H       0.54016   0.41964   0.26183 
H          H       0.54395   0.52249   0.30197 
H          H       0.51479   0.42758   0.27384 
H          H       0.67353   0.38330   0.26506 
H          H       0.59773   0.31831   0.33827 
H          H       0.56523   0.20718   0.14919 
H          H       0.61175   0.46659   0.32276 
H          H       0.58646   0.37295   0.24317 
H          H       0.57552   0.50670   0.29857 
H          H       0.48045   0.44190   0.26926 
H          H       0.69212   0.36434   0.27730 
H          H       0.62199   0.20163   0.21929 
H          H       0.77705   0.32506   0.36928 
H          H       0.52828   0.16317   0.23158 
H          H       0.59741   0.13740   0.31034 
H          H       0.56557   0.09221   0.27424 
H          H       0.46394   0.99436   0.21979 
H          H       0.55880   0.05969   0.25067 
H          H       0.59798   0.25857   0.30053 
H          H       0.66475   0.24839   0.20975 
H          H       0.77702   0.32587   0.10633 
H          H       0.51617   0.11667   0.22114 
H          H       0.60945   0.18417   0.31376 
H          H       0.47767   0.04155   0.22407 
H          H       0.54523   0.01285   0.23642 
H          H       0.61695   0.29499   0.29230 
H          H       0.78100   0.38611   0.23339 
H          H       0.65382   0.41680   0.43756 
H          H       0.82175   0.33143   0.22666 
H          H       0.84624   0.42469   0.29704 
H          H       0.89216   0.43746   0.28747 
H          H       0.99218   0.43348   0.26933 
H          H       0.92489   0.46254   0.28501 
H          H       0.72483   0.30613   0.25696 
H          H       0.73389   0.38219   0.23635 
H          H       0.65422   0.41530   0.17444 
H          H       0.86879   0.36479   0.23520 
H          H       0.79922   0.39056   0.28059 
H          H       0.94621   0.40030   0.25844 
H          H       0.97234   0.49457   0.28625 
Br         Br      0.42366   0.74200   0.39750 
Br         Br      0.33147   0.56908   0.26071 
Br         Br      0.75357   0.31194   0.18898 
C          C       0.32157   0.67238   0.33407 
C          C       0.34675   0.60143   0.33842 
C          C       0.38726   0.61418   0.38116 
C          C       0.42414   0.76991   0.38029 
C          C       0.37312   0.53486   0.34220 
C          C       0.41825   0.54610   0.30912 
C          C       0.40657   0.57956   0.30579 
C          C       0.44409   0.48096   0.29758 
C          C       0.48985   0.49096   0.29021 
C          C       0.47851   0.52478   0.29511 
N          N       0.43296   0.51503   0.30490 
C          C       0.31899   0.63095   0.33626 
C          C       0.38935   0.72512   0.37034 
C          C       0.37575   0.75235   0.33653 
C          C       0.21912   0.63567   0.31377 
C          C       0.45542   0.81607   0.36495 
C          C       0.44319   0.84912   0.39540 
C          C       0.41086   0.80470   0.41171 
C          C       0.50654   0.93860   0.38736 
C          C       0.49566   0.97283   0.39829 
C          C       0.46189   0.92860   0.39875 
N          N       0.47333   0.89402   0.38825 
C          C       0.36047   0.66899   0.35436 
C          C       0.26473   0.64565   0.32382 
C          C       0.23794   0.60537   0.29855 
C          C       0.35735   0.56636   0.34170 
C          C       0.17221   0.62131   0.30822 
C          C       0.13933   0.57697   0.32147 
C          C       0.18448   0.58852   0.32786 
C          C       0.04842   0.55160   0.31838 
C          C       0.01433   0.50745   0.31627 
C          C       0.05931   0.51763   0.31819 
N          N       0.09373   0.56265   0.31889 
C          C       0.67775   0.30126   0.25925 
C          C       0.65244   0.37212   0.28978 
C          C       0.61192   0.35930   0.33093 
C          C       0.57522   0.20369   0.27774 
C          C       0.62640   0.43892   0.31879 
C          C       0.58152   0.42785   0.28380 
C          C       0.59409   0.39501   0.26903 
C          C       0.55523   0.49259   0.29639 
C          C       0.50945   0.48250   0.28815 
C          C       0.52087   0.44874   0.28046 
N          N       0.56648   0.45862   0.29116 
C          C       0.68029   0.34268   0.27548 
C          C       0.61000   0.24848   0.28137 
C          C       0.62363   0.22127   0.23765 
C          C       0.78019   0.33800   0.24555 
C          C       0.54395   0.15753   0.24857 
C          C       0.55618   0.12449   0.26661 
C          C       0.58852   0.16890   0.29607 
C          C       0.49283   0.03502   0.23162 
C          C       0.50370   0.00078   0.22998 
C          C       0.53748   0.04501   0.24368 
N          N       0.52604   0.07958   0.24588 
C          C       0.63884   0.30460   0.28323 
C          C       0.73459   0.32802   0.25485 
C          C       0.76136   0.36830   0.24120 
C          C       0.64181   0.40716   0.30622 
C          C       0.82709   0.35235   0.24216 
C          C       0.85998   0.39669   0.26885 
C          C       0.81484   0.38515   0.27394 
C          C       0.95089   0.42203   0.26924 
C          C       0.98499   0.46617   0.28021 
C          C       0.94002   0.45600   0.28132 
N          N       0.90559   0.41099   0.26859 
Br         Br      0.24941   0.66255   0.37909 
Br         Br      0.66814   0.40335   0.39657 
Br         Br      0.57935   0.23658   0.24786 
C          C       0.34850   0.68416   0.84626 
N          N       0.35828   0.62696   0.85658 
N          N       0.36417   0.59331   0.85136 
C          C       0.38361   0.63526   0.88333 
C          C       0.37925   0.56037   0.83188 
C          C       0.39234   0.52781   0.83132 
C          C       0.42524   0.57183   0.79613 
C          C       0.43844   0.53871   0.79999 
C          C       0.46206   0.47231   0.79321 
C          C       0.49711   0.51688   0.79115 
C          C       0.45210   0.50703   0.79854 
C          C       0.30665   0.64578   0.82927 
N          N       0.36363   0.71142   0.84891 
N          N       0.39708   0.75015   0.86452 
C          C       0.35480   0.72813   0.82760 
C          C       0.42972   0.79726   0.88401 
C          C       0.46218   0.84185   0.87025 
C          C       0.41753   0.83045   0.91646 
C          C       0.44969   0.87599   0.90027 
C          C       0.51410   0.96456   0.89092 
C          C       0.46946   0.95456   0.90195 
C          C       0.48045   0.92047   0.89156 
C          C       0.34588   0.64236   0.84917 
N          N       0.27908   0.63385   0.81839 
N          N       0.23955   0.62856   0.81272 
C          C       0.26265   0.60865   0.80271 
C          C       0.19158   0.61440   0.81603 
C          C       0.14625   0.60277   0.81078 
C          C       0.15855   0.56993   0.83014 
C          C       0.11228   0.55709   0.82301 
C          C       0.02227   0.53362   0.81720 
C          C       0.03315   0.49967   0.81683 
C          C       0.06709   0.54376   0.81888 
C          C       0.65083   0.28945   0.76912 
N          N       0.64096   0.34660   0.79984 
N          N       0.63500   0.38020   0.80673 
C          C       0.61562   0.33825   0.82549 
C          C       0.61997   0.41328   0.79898 
C          C       0.60736   0.44622   0.81157 
C          C       0.57497   0.40223   0.76227 
C          C       0.56115   0.43499   0.77807 
C          C       0.53723   0.50119   0.79611 
C          C       0.50223   0.45660   0.78036 
C          C       0.54727   0.46654   0.78861 
C          C       0.69265   0.32787   0.76258 
N          N       0.63573   0.26220   0.76334 
N          N       0.60229   0.22346   0.76742 
C          C       0.64457   0.24550   0.73591 
C          C       0.56965   0.17634   0.77236 
C          C       0.53719   0.13176   0.74535 
C          C       0.58185   0.14316   0.79234 
C          C       0.54968   0.09762   0.76258 
C          C       0.48526   0.00905   0.72664 
C          C       0.52990   0.01905   0.73835 
C          C       0.51892   0.05313   0.74047 
C          C       0.65340   0.33123   0.78625 
N          N       0.72022   0.33981   0.75404 
N          N       0.75976   0.34511   0.74795 
C          C       0.73665   0.36501   0.74566 
C          C       0.80773   0.35927   0.75353 
C          C       0.85306   0.37088   0.74960 
C          C       0.84077   0.40374   0.78112 
C          C       0.88704   0.41656   0.77567 
C          C       0.97705   0.44001   0.77267 
C          C       0.96617   0.47396   0.78457 
C          C       0.93223   0.42987   0.77352 
H          H       0.31155   0.68445   0.82793 
H          H       0.40526   0.61214   0.89920 
H          H       0.43252   0.76654   0.51386 
H          H       0.35222   0.51951   0.85971 
H          H       0.44632   0.58665   0.77754 
H          H       0.45950   0.55393   0.78831 
H          H       0.45530   0.45100   0.79197 
H          H       0.48464   0.54595   0.79560 
H          H       0.32527   0.59008   0.81113 
H          H       0.40093   0.65531   0.90129 
H          H       0.43433   0.76659   0.75028 
H          H       0.38684   0.50667   0.83684 
H          H       0.41069   0.59967   0.79022 
H          H       0.42371   0.46719   0.79595 
H          H       0.51874   0.53214   0.78412 
H          H       0.30714   0.60928   0.83145 
H          H       0.37740   0.77200   0.82475 
H          H       0.22225   0.64862   0.94170 
H          H       0.47108   0.81043   0.84488 
H          H       0.40197   0.83621   0.93759 
H          H       0.43380   0.88140   0.91488 
H          H       0.53542   0.97925   0.88784 
H          H       0.44056   0.91392   0.90198 
H          H       0.40141   0.71515   0.88553 
H          H       0.33480   0.72557   0.80113 
H          H       0.22267   0.64762   0.67783 
H          H       0.48332   0.85711   0.84958 
H          H       0.39009   0.78959   0.92602 
H          H       0.52179   0.93222   0.87657 
H          H       0.45420   0.96089   0.90316 
H          H       0.38236   0.67857   0.86529 
H          H       0.21830   0.58756   0.78604 
H          H       0.34526   0.55668   0.97006 
H          H       0.17754   0.64223   0.79967 
H          H       0.15309   0.54897   0.83910 
H          H       0.10717   0.53619   0.82792 
H          H       0.00714   0.54014   0.81699 
H          H       0.07443   0.51110   0.81873 
H          H       0.27471   0.66746   0.83192 
H          H       0.26596   0.59150   0.78900 
H          H       0.34485   0.55834   0.70733 
H          H       0.13092   0.60897   0.79968 
H          H       0.20034   0.58298   0.83127 
H          H       0.05459   0.57270   0.81447 
H          H       0.02783   0.47860   0.81180 
H          H       0.68780   0.28921   0.74833 
H          H       0.59391   0.36131   0.85098 
H          H       0.56682   0.20705   0.91286 
H          H       0.64735   0.45410   0.84108 
H          H       0.55400   0.38716   0.73911 
H          H       0.54016   0.41964   0.76184 
H          H       0.54395   0.52249   0.80197 
H          H       0.51479   0.42758   0.77384 
H          H       0.67353   0.38330   0.76506 
H          H       0.59773   0.31831   0.83827 
H          H       0.56523   0.20718   0.64919 
H          H       0.61175   0.46659   0.82276 
H          H       0.58646   0.37295   0.74317 
H          H       0.57552   0.50670   0.79857 
H          H       0.48045   0.44190   0.76926 
H          H       0.69212   0.36434   0.77730 
H          H       0.62199   0.20163   0.71929 
H          H       0.77705   0.32506   0.86928 
H          H       0.52828   0.16317   0.73157 
H          H       0.59741   0.13740   0.81034 
H          H       0.56557   0.09221   0.77424 
H          H       0.46394   0.99436   0.71980 
H          H       0.55880   0.05969   0.75067 
H          H       0.59798   0.25857   0.80053 
H          H       0.66475   0.24839   0.70975 
H          H       0.77702   0.32587   0.60633 
H          H       0.51617   0.11667   0.72114 
H          H       0.60945   0.18417   0.81376 
H          H       0.47767   0.04155   0.72408 
H          H       0.54523   0.01285   0.73642 
H          H       0.61695   0.29499   0.79230 
H          H       0.78100   0.38611   0.73339 
H          H       0.65382   0.41680   0.93756 
H          H       0.82175   0.33143   0.72666 
H          H       0.84624   0.42469   0.79704 
H          H       0.89216   0.43746   0.78747 
H          H       0.99218   0.43348   0.76934 
H          H       0.92489   0.46254   0.78501 
H          H       0.72483   0.30613   0.75696 
H          H       0.73389   0.38219   0.73635 
H          H       0.65422   0.41530   0.67444 
H          H       0.86879   0.36479   0.73520 
H          H       0.79922   0.39056   0.78060 
H          H       0.94621   0.40030   0.75845 
H          H       0.97234   0.49457   0.78625 
Br         Br      0.42366   0.74200   0.89750 
Br         Br      0.33147   0.56908   0.76071 
Br         Br      0.75357   0.31194   0.68898 
C          C       0.32157   0.67238   0.83407 
C          C       0.34675   0.60143   0.83842 
C          C       0.38726   0.61418   0.88116 
C          C       0.42414   0.76991   0.88029 
C          C       0.37312   0.53486   0.84220 
C          C       0.41825   0.54610   0.80912 
C          C       0.40657   0.57956   0.80579 
C          C       0.44409   0.48096   0.79759 
C          C       0.48985   0.49096   0.79021 
C          C       0.47851   0.52478   0.79511 
N          N       0.43296   0.51503   0.80490 
C          C       0.31899   0.63095   0.83626 
C          C       0.38935   0.72512   0.87035 
C          C       0.37575   0.75235   0.83653 
C          C       0.21912   0.63567   0.81377 
C          C       0.45542   0.81607   0.86495 
C          C       0.44319   0.84912   0.89540 
C          C       0.41086   0.80470   0.91171 
C          C       0.50654   0.93860   0.88736 
C          C       0.49566   0.97283   0.89829 
C          C       0.46189   0.92860   0.89875 
N          N       0.47333   0.89402   0.88825 
C          C       0.36047   0.66899   0.85436 
C          C       0.26473   0.64565   0.82383 
C          C       0.23794   0.60537   0.79855 
C          C       0.35735   0.56636   0.84170 
C          C       0.17221   0.62131   0.80822 
C          C       0.13933   0.57697   0.82147 
C          C       0.18448   0.58852   0.82786 
C          C       0.04842   0.55160   0.81839 
C          C       0.01433   0.50745   0.81627 
C          C       0.05931   0.51763   0.81818 
N          N       0.09373   0.56265   0.81890 
C          C       0.67775   0.30126   0.75925 
C          C       0.65244   0.37212   0.78978 
C          C       0.61192   0.35930   0.83093 
C          C       0.57522   0.20369   0.77774 
C          C       0.62640   0.43892   0.81879 
C          C       0.58152   0.42785   0.78380 
C          C       0.59409   0.39501   0.76903 
C          C       0.55523   0.49259   0.79639 
C          C       0.50945   0.48250   0.78815 
C          C       0.52087   0.44874   0.78046 
N          N       0.56648   0.45862   0.79116 
C          C       0.68029   0.34268   0.77548 
C          C       0.61000   0.24848   0.78138 
C          C       0.62363   0.22127   0.73765 
C          C       0.78019   0.33800   0.74555 
C          C       0.54395   0.15753   0.74857 
C          C       0.55618   0.12449   0.76661 
C          C       0.58852   0.16890   0.79607 
C          C       0.49283   0.03502   0.73162 
C          C       0.50370   0.00078   0.72998 
C          C       0.53748   0.04501   0.74368 
N          N       0.52604   0.07958   0.74588 
C          C       0.63884   0.30460   0.78323 
C          C       0.73459   0.32802   0.75486 
C          C       0.76136   0.36830   0.74120 
C          C       0.64181   0.40716   0.80622 
C          C       0.82709   0.35235   0.74216 
C          C       0.85998   0.39669   0.76885 
C          C       0.81484   0.38515   0.77394 
C          C       0.95089   0.42203   0.76924 
C          C       0.98499   0.46617   0.78022 
C          C       0.94002   0.45600   0.78132 
N          N       0.90559   0.41099   0.76859 
Br         Br      0.24941   0.66255   0.87909 
Br         Br      0.66814   0.40335   0.89656 
Br         Br      0.57935   0.23658   0.74786 
