data_crystal

_cell_length_a    18.56300
_cell_length_b    18.56300
_cell_length_c    37.45780
_cell_angle_alpha 90.00000
_cell_angle_beta  90.00000
_cell_angle_gamma 90.00000

_space_group_name_Hall 'P 1'
_space_group_name_H-M_alt  'P 1'

loop_
_symmetry_equiv_pos_as_xyz
'x,y,z' 

loop_
_atom_site_label
_atom_site_type_symbol
_atom_site_fract_x
_atom_site_fract_y
_atom_site_fract_z
C          C       0.47247   0.47247   0.56002 
C          C       0.52753   0.52753   0.56002 
C          C       0.02753   0.97247   0.06002 
C          C       0.97247   0.02753   0.06002 
C          C       0.02753   0.02753   0.93998 
C          C       0.97247   0.97247   0.93998 
C          C       0.47247   0.52753   0.43998 
C          C       0.52753   0.47247   0.43998 
C          C       0.43884   0.43884   0.58851 
C          C       0.56116   0.56116   0.58851 
C          C       0.06116   0.93884   0.08851 
C          C       0.93884   0.06116   0.08851 
C          C       0.06116   0.06116   0.91149 
C          C       0.93884   0.93884   0.91149 
C          C       0.43884   0.56116   0.41149 
C          C       0.56116   0.43884   0.41149 
C          C       0.38625   0.38625   0.58125 
C          C       0.61375   0.61375   0.58125 
C          C       0.11375   0.88625   0.08125 
C          C       0.88625   0.11375   0.08125 
C          C       0.11375   0.11375   0.91875 
C          C       0.88625   0.88625   0.91875 
C          C       0.38625   0.61375   0.41875 
C          C       0.61375   0.38625   0.41875 
C          C       0.36822   0.36821   0.54558 
C          C       0.63178   0.63179   0.54558 
C          C       0.13179   0.86822   0.04558 
C          C       0.86821   0.13178   0.04558 
C          C       0.13178   0.13179   0.95442 
C          C       0.86822   0.86821   0.95442 
C          C       0.36821   0.63178   0.45442 
C          C       0.63179   0.36822   0.45442 
C          C       0.40381   0.40381   0.51723 
C          C       0.59619   0.59619   0.51723 
C          C       0.09619   0.90381   0.01723 
C          C       0.90381   0.09619   0.01723 
C          C       0.09619   0.09619   0.98277 
C          C       0.90381   0.90381   0.98277 
C          C       0.40381   0.59619   0.48277 
C          C       0.59619   0.40381   0.48277 
C          C       0.45567   0.45567   0.52521 
C          C       0.54433   0.54433   0.52521 
C          C       0.04433   0.95567   0.02521 
C          C       0.95567   0.04433   0.02521 
C          C       0.04433   0.04433   0.97479 
C          C       0.95567   0.95567   0.97479 
C          C       0.45567   0.54433   0.47479 
C          C       0.54433   0.45567   0.47479 
C          C       0.27987   0.27987   0.66962 
C          C       0.72013   0.72013   0.66962 
C          C       0.22013   0.77987   0.16962 
C          C       0.77987   0.22013   0.16962 
C          C       0.22013   0.22013   0.83038 
C          C       0.77987   0.77987   0.83038 
C          C       0.27987   0.72013   0.33038 
C          C       0.72013   0.27987   0.33038 
C          C       0.24861   0.24861   0.69956 
C          C       0.75139   0.75139   0.69956 
C          C       0.25139   0.74861   0.19956 
C          C       0.74861   0.25139   0.19956 
C          C       0.25139   0.25139   0.80044 
C          C       0.74861   0.74861   0.80044 
C          C       0.24861   0.75139   0.30044 
C          C       0.75139   0.24861   0.30044 
C          C       0.26830   0.26830   0.73443 
C          C       0.73170   0.73170   0.73443 
C          C       0.23170   0.76830   0.23443 
C          C       0.76830   0.23170   0.23443 
C          C       0.23170   0.23170   0.76557 
C          C       0.76830   0.76830   0.76557 
C          C       0.26830   0.73170   0.26557 
C          C       0.73170   0.26830   0.26557 
C          C       0.32255   0.32255   0.73809 
C          C       0.67745   0.67745   0.73809 
C          C       0.17745   0.82255   0.23809 
C          C       0.82255   0.17745   0.23809 
C          C       0.17745   0.17745   0.76191 
C          C       0.82255   0.82255   0.76191 
C          C       0.32255   0.67745   0.26191 
C          C       0.67745   0.32255   0.26191 
C          C       0.35357   0.35357   0.70782 
C          C       0.64643   0.64643   0.70782 
C          C       0.14643   0.85357   0.20782 
C          C       0.85357   0.14643   0.20782 
C          C       0.14643   0.14643   0.79218 
C          C       0.85357   0.85357   0.79218 
C          C       0.35357   0.64643   0.29218 
C          C       0.64643   0.35357   0.29218 
C          C       0.33271   0.33271   0.67370 
C          C       0.66729   0.66729   0.67370 
C          C       0.16729   0.83271   0.17370 
C          C       0.83271   0.16729   0.17370 
C          C       0.16729   0.16729   0.82630 
C          C       0.83271   0.83271   0.82630 
C          C       0.33271   0.66729   0.32630 
C          C       0.66729   0.33271   0.32630 
C          C       0.14990   0.85010   0.11099 
C          C       0.85010   0.14990   0.11099 
C          C       0.64990   0.64990   0.61099 
C          C       0.35010   0.35010   0.61099 
C          C       0.35010   0.64990   0.38901 
C          C       0.64990   0.35010   0.38901 
C          C       0.85010   0.85010   0.88901 
C          C       0.14990   0.14990   0.88901 
N          N       0.13390   0.86610   0.14368 
N          N       0.86610   0.13390   0.14368 
N          N       0.63390   0.63390   0.64368 
N          N       0.36610   0.36610   0.64368 
N          N       0.36610   0.63390   0.35632 
N          N       0.63390   0.36610   0.35632 
N          N       0.86610   0.86610   0.85632 
N          N       0.13390   0.13390   0.85632 
O          O       0.81528   0.18472   0.03955 
O          O       0.18472   0.81528   0.03955 
O          O       0.31528   0.31528   0.53955 
O          O       0.68472   0.68472   0.53955 
O          O       0.68472   0.31528   0.46045 
O          O       0.31528   0.68472   0.46045 
O          O       0.18472   0.18472   0.96045 
O          O       0.81528   0.81528   0.96045 
C          C       0.79979   0.20021   0.00312 
C          C       0.20021   0.79979   0.00312 
C          C       0.29979   0.29979   0.50312 
C          C       0.70021   0.70021   0.50312 
C          C       0.70021   0.29979   0.49688 
C          C       0.29979   0.70021   0.49688 
C          C       0.20021   0.20021   0.99688 
C          C       0.79979   0.79979   0.99688 
C          C       0.35012   0.35012   0.77291 
C          C       0.64988   0.64988   0.77291 
C          C       0.14988   0.85012   0.27291 
C          C       0.85012   0.14988   0.27291 
C          C       0.14988   0.14988   0.72709 
C          C       0.85012   0.85012   0.72709 
C          C       0.35012   0.64988   0.22709 
C          C       0.64988   0.35012   0.22709 
H          H       0.19252   0.80748   0.10515 
H          H       0.80748   0.19252   0.10515 
H          H       0.69252   0.69252   0.60515 
H          H       0.30748   0.30748   0.60515 
H          H       0.30748   0.69252   0.39485 
H          H       0.69252   0.30748   0.39485 
H          H       0.80748   0.80748   0.89485 
H          H       0.19252   0.19252   0.89485 
H          H       0.39101   0.39480   0.76788 
H          H       0.60899   0.60520   0.76788 
H          H       0.10520   0.89101   0.26788 
H          H       0.89480   0.10899   0.26788 
H          H       0.10899   0.10520   0.73212 
H          H       0.89101   0.89480   0.73212 
H          H       0.39480   0.60899   0.23212 
H          H       0.60520   0.39101   0.23212 
H          H       0.37706   0.30433   0.78818 
H          H       0.62294   0.69567   0.78818 
H          H       0.19567   0.87706   0.28818 
H          H       0.80433   0.12294   0.28818 
H          H       0.12294   0.19567   0.71182 
H          H       0.87706   0.80433   0.71182 
H          H       0.30433   0.62294   0.21182 
H          H       0.69567   0.37706   0.21182 
H          H       0.30335   0.37229   0.78930 
H          H       0.69665   0.62771   0.78930 
H          H       0.12771   0.80335   0.28930 
H          H       0.87229   0.19665   0.28930 
H          H       0.19665   0.12771   0.71070 
H          H       0.80335   0.87229   0.71070 
H          H       0.37229   0.69665   0.21070 
H          H       0.62771   0.30335   0.21070 
H          H       0.80822   0.14962   0.98637 
H          H       0.19178   0.85038   0.98637 
H          H       0.35038   0.30822   0.48637 
H          H       0.64962   0.69178   0.48637 
H          H       0.69178   0.35038   0.51363 
H          H       0.30822   0.64962   0.51363 
H          H       0.14962   0.19178   0.01363 
H          H       0.85038   0.80822   0.01363 
H          H       0.83727   0.24460   0.99325 
H          H       0.16273   0.75540   0.99325 
H          H       0.25540   0.33727   0.49325 
H          H       0.74460   0.66273   0.49325 
H          H       0.66273   0.25540   0.50675 
H          H       0.33727   0.74460   0.50675 
H          H       0.24460   0.16273   0.00675 
H          H       0.75540   0.83727   0.00675 
H          H       0.74149   0.21880   0.00056 
H          H       0.25851   0.78120   0.00056 
H          H       0.28120   0.24149   0.50056 
H          H       0.71880   0.75851   0.50056 
H          H       0.75851   0.28120   0.49944 
H          H       0.24149   0.71880   0.49944 
H          H       0.21880   0.25851   0.99944 
H          H       0.78120   0.74149   0.99944 
H          H       0.45398   0.45398   0.61704 
H          H       0.54602   0.54602   0.61704 
H          H       0.04602   0.95398   0.11704 
H          H       0.95398   0.04602   0.11704 
H          H       0.04602   0.04602   0.88296 
H          H       0.95398   0.95398   0.88296 
H          H       0.45398   0.54602   0.38296 
H          H       0.54602   0.45398   0.38296 
H          H       0.38992   0.38992   0.48839 
H          H       0.61008   0.61008   0.48839 
H          H       0.11008   0.88992   0.98839 
H          H       0.88992   0.11008   0.98839 
H          H       0.11008   0.11008   0.01161 
H          H       0.88992   0.88992   0.01161 
H          H       0.38992   0.61008   0.51161 
H          H       0.61008   0.38992   0.51161 
H          H       0.26234   0.26234   0.64177 
H          H       0.73766   0.73766   0.64177 
H          H       0.23766   0.76234   0.14177 
H          H       0.76234   0.23766   0.14177 
H          H       0.23766   0.23766   0.85823 
H          H       0.76234   0.76234   0.85823 
H          H       0.26234   0.73766   0.35823 
H          H       0.73766   0.26234   0.35823 
H          H       0.20544   0.20544   0.69628 
H          H       0.79456   0.79456   0.69628 
H          H       0.29456   0.70544   0.19628 
H          H       0.70544   0.29456   0.19628 
H          H       0.29456   0.29456   0.80372 
H          H       0.70544   0.70544   0.80372 
H          H       0.20544   0.79456   0.30372 
H          H       0.79456   0.20544   0.30372 
H          H       0.39678   0.39678   0.71084 
H          H       0.60322   0.60322   0.71084 
H          H       0.10322   0.89678   0.21084 
H          H       0.89678   0.10322   0.21084 
H          H       0.10322   0.10322   0.78916 
H          H       0.89678   0.89678   0.78916 
H          H       0.39678   0.60322   0.28916 
H          H       0.60322   0.39678   0.28916 
C          C       0.50000   0.50000   0.50000 
C          C       0.00000   0.00000   0.00000 
