data_crystal
 
_cell_length_a    26.46160
_cell_length_b    26.46160
_cell_length_c    24.96440
_cell_angle_alpha 90.00000
_cell_angle_beta  90.00000
_cell_angle_gamma 90.00000
 
_space_group_name_Hall 'P 1'
_space_group_name_H-M_alt  'P 1'
 
loop_
_symmetry_equiv_pos_as_xyz
 'x,y,z' 
 
loop_
_atom_site_label
_atom_site_type_symbol
_atom_site_fract_x
_atom_site_fract_y
_atom_site_fract_z
C          C       0.49347   0.59533   0.47347 
C          C       0.00653   0.90467   0.97347 
C          C       0.40467   0.99347   0.72347 
C          C       0.09533   0.50653   0.22347 
C          C       0.50653   0.90467   0.77653 
C          C       0.99347   0.59533   0.27653 
C          C       0.59533   0.50653   0.52653 
C          C       0.90467   0.99347   0.02653 
C          C       0.99347   0.09533   0.97347 
C          C       0.50653   0.40467   0.47347 
C          C       0.90467   0.49347   0.22347 
C          C       0.59533   0.00653   0.72347 
C          C       0.00653   0.40467   0.27653 
C          C       0.49347   0.09533   0.77653 
C          C       0.09533   0.00653   0.02653 
C          C       0.40467   0.49347   0.52653 
C          C       0.49103   0.63052   0.43078 
C          C       0.00897   0.86948   0.93078 
C          C       0.36948   0.99103   0.68078 
C          C       0.13052   0.50897   0.18078 
C          C       0.50897   0.86948   0.81922 
C          C       0.99103   0.63052   0.31922 
C          C       0.63052   0.50897   0.56922 
C          C       0.86948   0.99103   0.06922 
C          C       0.99103   0.13052   0.93078 
C          C       0.50897   0.36948   0.43078 
C          C       0.86948   0.49103   0.18078 
C          C       0.63052   0.00897   0.68078 
C          C       0.00897   0.36948   0.31922 
C          C       0.49103   0.13052   0.81922 
C          C       0.13052   0.00897   0.06922 
C          C       0.36948   0.49103   0.56922 
C          C       0.49219   0.61271   0.37718 
C          C       0.00781   0.88729   0.87718 
C          C       0.38729   0.99219   0.62718 
C          C       0.11271   0.50781   0.12718 
C          C       0.50781   0.88729   0.87282 
C          C       0.99219   0.61271   0.37282 
C          C       0.61271   0.50781   0.62282 
C          C       0.88729   0.99219   0.12282 
C          C       0.99219   0.11271   0.87718 
C          C       0.50781   0.38729   0.37718 
C          C       0.88729   0.49219   0.12718 
C          C       0.61271   0.00781   0.62718 
C          C       0.00781   0.38729   0.37282 
C          C       0.49219   0.11271   0.87282 
C          C       0.11271   0.00781   0.12282 
C          C       0.38729   0.49219   0.62282 
C          C       0.49577   0.56058   0.36649 
C          C       0.00423   0.93942   0.86649 
C          C       0.43942   0.99577   0.61649 
C          C       0.06058   0.50423   0.11649 
C          C       0.50423   0.93942   0.88351 
C          C       0.99577   0.56058   0.38351 
C          C       0.56058   0.50423   0.63351 
C          C       0.93942   0.99577   0.13351 
C          C       0.99577   0.06058   0.86649 
C          C       0.50423   0.43942   0.36649 
C          C       0.93942   0.49577   0.11649 
C          C       0.56058   0.00423   0.61649 
C          C       0.00423   0.43942   0.38351 
C          C       0.49577   0.06058   0.88351 
C          C       0.06058   0.00423   0.13351 
C          C       0.43942   0.49577   0.63351 
C          C       0.49812   0.52728   0.40945 
C          C       0.00188   0.97272   0.90945 
C          C       0.47272   0.99812   0.65945 
C          C       0.02728   0.50188   0.15945 
C          C       0.50188   0.97272   0.84055 
C          C       0.99812   0.52728   0.34055 
C          C       0.52728   0.50188   0.59055 
C          C       0.97272   0.99812   0.09055 
C          C       0.99812   0.02728   0.90945 
C          C       0.50188   0.47272   0.40945 
C          C       0.97272   0.49812   0.15945 
C          C       0.52728   0.00188   0.65945 
C          C       0.00188   0.47272   0.34055 
C          C       0.49812   0.02728   0.84055 
C          C       0.02728   0.00188   0.09055 
C          C       0.47272   0.49812   0.59055 
C          C       0.49699   0.54392   0.46179 
C          C       0.00301   0.95608   0.96179 
C          C       0.45608   0.99699   0.71179 
C          C       0.04392   0.50301   0.21179 
C          C       0.50301   0.95608   0.78821 
C          C       0.99699   0.54392   0.28821 
C          C       0.54392   0.50301   0.53821 
C          C       0.95608   0.99699   0.03821 
C          C       0.99699   0.04392   0.96179 
C          C       0.50301   0.45608   0.46179 
C          C       0.95608   0.49699   0.21179 
C          C       0.54392   0.00301   0.71179 
C          C       0.00301   0.45608   0.28821 
C          C       0.49699   0.04392   0.78821 
C          C       0.04392   0.00301   0.03821 
C          C       0.45608   0.49699   0.53821 
N          N       0.49020   0.63372   0.28311 
N          N       0.00980   0.86628   0.78311 
N          N       0.36628   0.99020   0.53311 
N          N       0.13372   0.50980   0.03311 
N          N       0.50980   0.86628   0.96689 
N          N       0.99020   0.63372   0.46689 
N          N       0.63372   0.50980   0.71689 
N          N       0.86628   0.99020   0.21689 
N          N       0.99020   0.13372   0.78311 
N          N       0.50980   0.36628   0.28311 
N          N       0.86628   0.49020   0.03311 
N          N       0.63372   0.00980   0.53311 
N          N       0.00980   0.36628   0.46689 
N          N       0.49020   0.13372   0.96689 
N          N       0.13372   0.00980   0.21689 
N          N       0.36628   0.49020   0.71689 
C          C       0.48965   0.64885   0.33250 
C          C       0.01035   0.85115   0.83250 
C          C       0.35115   0.98965   0.58250 
C          C       0.14885   0.51035   0.08250 
C          C       0.51035   0.85115   0.91750 
C          C       0.98965   0.64885   0.41750 
C          C       0.64885   0.51035   0.66750 
C          C       0.85115   0.98965   0.16750 
C          C       0.98965   0.14885   0.83250 
C          C       0.51035   0.35115   0.33250 
C          C       0.85115   0.48965   0.08250 
C          C       0.64885   0.01035   0.58250 
C          C       0.01035   0.35115   0.41750 
C          C       0.48965   0.14885   0.91750 
C          C       0.14885   0.01035   0.16750 
C          C       0.35115   0.48965   0.66750 
C          C       0.48065   0.71933   0.24482 
C          C       0.01935   0.78067   0.74482 
C          C       0.28067   0.98065   0.49482 
C          C       0.21933   0.51935   0.99482 
C          C       0.51935   0.78067   0.00518 
C          C       0.98065   0.71933   0.50518 
C          C       0.71933   0.51935   0.75518 
C          C       0.78067   0.98065   0.25518 
C          C       0.98065   0.21933   0.74482 
C          C       0.51935   0.28067   0.24482 
C          C       0.78067   0.48065   0.99482 
C          C       0.71933   0.01935   0.49482 
C          C       0.01935   0.28067   0.50518 
C          C       0.48065   0.21933   0.00518 
C          C       0.21933   0.01935   0.25518 
C          C       0.28067   0.48065   0.75518 
C          C       0.47994   0.75149   0.20043 
C          C       0.02006   0.74851   0.70043 
C          C       0.24851   0.97994   0.45043 
C          C       0.25149   0.52006   0.95043 
C          C       0.52006   0.74851   0.04957 
C          C       0.97994   0.75149   0.54957 
C          C       0.75149   0.52006   0.79957 
C          C       0.74851   0.97994   0.29957 
C          C       0.97994   0.25149   0.70043 
C          C       0.52006   0.24851   0.20043 
C          C       0.74851   0.47994   0.95043 
C          C       0.75149   0.02006   0.45043 
C          C       0.02006   0.24851   0.54957 
C          C       0.47994   0.25149   0.04957 
C          C       0.25149   0.02006   0.29957 
C          C       0.24851   0.47994   0.79957 
C          C       0.49201   0.73268   0.14830 
C          C       0.00799   0.76732   0.64830 
C          C       0.26732   0.99201   0.39830 
C          C       0.23268   0.50799   0.89830 
C          C       0.50799   0.76732   0.10170 
C          C       0.99201   0.73268   0.60170 
C          C       0.73268   0.50799   0.85170 
C          C       0.76732   0.99201   0.35170 
C          C       0.99201   0.23268   0.64830 
C          C       0.50799   0.26732   0.14830 
C          C       0.76732   0.49201   0.89830 
C          C       0.73268   0.00799   0.39830 
C          C       0.00799   0.26732   0.60170 
C          C       0.49201   0.23268   0.10170 
C          C       0.23268   0.00799   0.35170 
C          C       0.26732   0.49201   0.85170 
C          C       0.48526   0.67940   0.14222 
C          C       0.01474   0.82060   0.64222 
C          C       0.32060   0.98526   0.39222 
C          C       0.17940   0.51474   0.89222 
C          C       0.51474   0.82060   0.10778 
C          C       0.98526   0.67940   0.60778 
C          C       0.67940   0.51474   0.85778 
C          C       0.82060   0.98526   0.35778 
C          C       0.98526   0.17940   0.64222 
C          C       0.51474   0.32060   0.14222 
C          C       0.82060   0.48526   0.89222 
C          C       0.67940   0.01474   0.39222 
C          C       0.01474   0.32060   0.60778 
C          C       0.48526   0.17940   0.10778 
C          C       0.17940   0.01474   0.35778 
C          C       0.32060   0.48526   0.85778 
C          C       0.48599   0.64760   0.18689 
C          C       0.01401   0.85240   0.68689 
C          C       0.35240   0.98599   0.43689 
C          C       0.14760   0.51401   0.93689 
C          C       0.51401   0.85240   0.06311 
C          C       0.98599   0.64760   0.56311 
C          C       0.64760   0.51401   0.81311 
C          C       0.85240   0.98599   0.31311 
C          C       0.98599   0.14760   0.68689 
C          C       0.51401   0.35240   0.18689 
C          C       0.85240   0.48599   0.93689 
C          C       0.64760   0.01401   0.43689 
C          C       0.01401   0.35240   0.56311 
C          C       0.48599   0.14760   0.06311 
C          C       0.14760   0.01401   0.31311 
C          C       0.35240   0.48599   0.81311 
C          C       0.48787   0.66745   0.23836 
C          C       0.01213   0.83255   0.73836 
C          C       0.33255   0.98787   0.48836 
C          C       0.16745   0.51213   0.98836 
C          C       0.51213   0.83255   0.01164 
C          C       0.98787   0.66745   0.51164 
C          C       0.66745   0.51213   0.76164 
C          C       0.83255   0.98787   0.26164 
C          C       0.98787   0.16745   0.73836 
C          C       0.51213   0.33255   0.23836 
C          C       0.83255   0.48787   0.98836 
C          C       0.66745   0.01213   0.48836 
C          C       0.01213   0.33255   0.51164 
C          C       0.48787   0.16745   0.01164 
C          C       0.16745   0.01213   0.26164 
C          C       0.33255   0.48787   0.76164 
O          O       0.48745   0.68292   0.43979 
O          O       0.01255   0.81708   0.93979 
O          O       0.31708   0.98745   0.68979 
O          O       0.18292   0.51255   0.18979 
O          O       0.51255   0.81708   0.81021 
O          O       0.98745   0.68292   0.31021 
O          O       0.68292   0.51255   0.56021 
O          O       0.81708   0.98745   0.06021 
O          O       0.98745   0.18292   0.93979 
O          O       0.51255   0.31708   0.43979 
O          O       0.81708   0.48745   0.18979 
O          O       0.68292   0.01255   0.68979 
O          O       0.01255   0.31708   0.31021 
O          O       0.48745   0.18292   0.81021 
O          O       0.18292   0.01255   0.06021 
O          O       0.31708   0.48745   0.56021 
C          C       0.48646   0.69830   0.49445 
C          C       0.01354   0.80170   0.99445 
C          C       0.30170   0.98646   0.74445 
C          C       0.19830   0.51354   0.24445 
C          C       0.51354   0.80170   0.75555 
C          C       0.98646   0.69830   0.25555 
C          C       0.69830   0.51354   0.50555 
C          C       0.80170   0.98646   0.00555 
C          C       0.98646   0.19830   0.99445 
C          C       0.51354   0.30170   0.49445 
C          C       0.80170   0.48646   0.24445 
C          C       0.69830   0.01354   0.74445 
C          C       0.01354   0.30170   0.25555 
C          C       0.48646   0.19830   0.75555 
C          C       0.19830   0.01354   0.00555 
C          C       0.30170   0.48646   0.50555 
C          C       0.45382   0.80072   0.20938 
C          C       0.04618   0.69928   0.70938 
C          C       0.19928   0.95382   0.45938 
C          C       0.30072   0.54618   0.95938 
C          C       0.54618   0.69928   0.04062 
C          C       0.95382   0.80072   0.54062 
C          C       0.80072   0.54618   0.79062 
C          C       0.69928   0.95382   0.29062 
C          C       0.95382   0.30072   0.70938 
C          C       0.54618   0.19928   0.20938 
C          C       0.69928   0.45382   0.95938 
C          C       0.80072   0.04618   0.45938 
C          C       0.04618   0.19928   0.54062 
C          C       0.45382   0.30072   0.04062 
C          C       0.30072   0.04618   0.29062 
C          C       0.19928   0.45382   0.79062 
C          C       0.46445   0.65602   0.09253 
C          C       0.03555   0.84398   0.59253 
C          C       0.34398   0.96445   0.34253 
C          C       0.15602   0.53555   0.84253 
C          C       0.53555   0.84398   0.15747 
C          C       0.96445   0.65602   0.65747 
C          C       0.65602   0.53555   0.90747 
C          C       0.84398   0.96445   0.40747 
C          C       0.96445   0.15602   0.59253 
C          C       0.53555   0.34398   0.09253 
C          C       0.84398   0.46445   0.84253 
C          C       0.65602   0.03555   0.34253 
C          C       0.03555   0.34398   0.65747 
C          C       0.46445   0.15602   0.15747 
C          C       0.15602   0.03555   0.40747 
C          C       0.34398   0.46445   0.90747 
H          H       0.46624   0.66840   0.51938 
H          H       0.03376   0.83160   0.01938 
H          H       0.33160   0.96624   0.76938 
H          H       0.16840   0.53376   0.26938 
H          H       0.53376   0.83160   0.73062 
H          H       0.96624   0.66840   0.23062 
H          H       0.66840   0.53376   0.48062 
H          H       0.83160   0.96624   0.98062 
H          H       0.96624   0.16840   0.01938 
H          H       0.53376   0.33160   0.51938 
H          H       0.83160   0.46624   0.26938 
H          H       0.66840   0.03376   0.76938 
H          H       0.03376   0.33160   0.23062 
H          H       0.46624   0.16840   0.73062 
H          H       0.16840   0.03376   0.98062 
H          H       0.33160   0.46624   0.48062 
H          H       0.46554   0.73581   0.49805 
H          H       0.03446   0.76419   0.99805 
H          H       0.26419   0.96554   0.74805 
H          H       0.23581   0.53446   0.24805 
H          H       0.53446   0.76419   0.75195 
H          H       0.96554   0.73581   0.25195 
H          H       0.73581   0.53446   0.50195 
H          H       0.76419   0.96554   0.00195 
H          H       0.96554   0.23581   0.99805 
H          H       0.53446   0.26419   0.49805 
H          H       0.76419   0.46554   0.24805 
H          H       0.73581   0.03446   0.74805 
H          H       0.03446   0.26419   0.25195 
H          H       0.46554   0.23581   0.75195 
H          H       0.23581   0.03446   0.00195 
H          H       0.26419   0.46554   0.50195 
H          H       0.52681   0.70300   0.50966 
H          H       0.97319   0.79700   0.00966 
H          H       0.29700   0.02681   0.75966 
H          H       0.20300   0.47319   0.25966 
H          H       0.47319   0.79700   0.74034 
H          H       0.02681   0.70300   0.24034 
H          H       0.70300   0.47319   0.49034 
H          H       0.79700   0.02681   0.99034 
H          H       0.02681   0.20300   0.00966 
H          H       0.47319   0.29700   0.50966 
H          H       0.79700   0.52681   0.25966 
H          H       0.70300   0.97319   0.75966 
H          H       0.97319   0.29700   0.24034 
H          H       0.52681   0.20300   0.74034 
H          H       0.20300   0.97319   0.99034 
H          H       0.29700   0.52681   0.49034 
H          H       0.42035   0.79486   0.23746 
H          H       0.07965   0.70514   0.73746 
H          H       0.20514   0.92035   0.48746 
H          H       0.29486   0.57965   0.98746 
H          H       0.57965   0.70514   0.01254 
H          H       0.92035   0.79486   0.51254 
H          H       0.79486   0.57965   0.76254 
H          H       0.70514   0.92035   0.26254 
H          H       0.92035   0.29486   0.73746 
H          H       0.57965   0.20514   0.23746 
H          H       0.70514   0.42035   0.98746 
H          H       0.79486   0.07965   0.48746 
H          H       0.07965   0.20514   0.51254 
H          H       0.42035   0.29486   0.01254 
H          H       0.29486   0.07965   0.26254 
H          H       0.20514   0.42035   0.76254 
H          H       0.43977   0.81617   0.16944 
H          H       0.06023   0.68383   0.66944 
H          H       0.18383   0.93977   0.41944 
H          H       0.31617   0.56023   0.91944 
H          H       0.56023   0.68383   0.08056 
H          H       0.93977   0.81617   0.58056 
H          H       0.81617   0.56023   0.83056 
H          H       0.68383   0.93977   0.33056 
H          H       0.93977   0.31617   0.66944 
H          H       0.56023   0.18383   0.16944 
H          H       0.68383   0.43977   0.91944 
H          H       0.81617   0.06023   0.41944 
H          H       0.06023   0.18383   0.58056 
H          H       0.43977   0.31617   0.08056 
H          H       0.31617   0.06023   0.33056 
H          H       0.18383   0.43977   0.83056 
H          H       0.48136   0.82875   0.22808 
H          H       0.01864   0.67125   0.72808 
H          H       0.17125   0.98136   0.47808 
H          H       0.32875   0.51864   0.97808 
H          H       0.51864   0.67125   0.02192 
H          H       0.98136   0.82875   0.52192 
H          H       0.82875   0.51864   0.77192 
H          H       0.67125   0.98136   0.27192 
H          H       0.98136   0.32875   0.72808 
H          H       0.51864   0.17125   0.22808 
H          H       0.67125   0.48136   0.97808 
H          H       0.82875   0.01864   0.47808 
H          H       0.01864   0.17125   0.52192 
H          H       0.48136   0.32875   0.02192 
H          H       0.32875   0.01864   0.27192 
H          H       0.17125   0.48136   0.77192 
H          H       0.47387   0.61398   0.09201 
H          H       0.02613   0.88602   0.59201 
H          H       0.38602   0.97387   0.34201 
H          H       0.11398   0.52613   0.84201 
H          H       0.52613   0.88602   0.15799 
H          H       0.97387   0.61398   0.65799 
H          H       0.61398   0.52613   0.90799 
H          H       0.88602   0.97387   0.40799 
H          H       0.97387   0.11398   0.59201 
H          H       0.52613   0.38602   0.09201 
H          H       0.88602   0.47387   0.84201 
H          H       0.61398   0.02613   0.34201 
H          H       0.02613   0.38602   0.65799 
H          H       0.47387   0.11398   0.15799 
H          H       0.11398   0.02613   0.40799 
H          H       0.38602   0.47387   0.90799 
H          H       0.48188   0.67504   0.05596 
H          H       0.01812   0.82496   0.55596 
H          H       0.32496   0.98188   0.30596 
H          H       0.17504   0.51812   0.80596 
H          H       0.51812   0.82496   0.19404 
H          H       0.98188   0.67504   0.69404 
H          H       0.67504   0.51812   0.94404 
H          H       0.82496   0.98188   0.44404 
H          H       0.98188   0.17504   0.55596 
H          H       0.51812   0.32496   0.05596 
H          H       0.82496   0.48188   0.80596 
H          H       0.67504   0.01812   0.30596 
H          H       0.01812   0.32496   0.69404 
H          H       0.48188   0.17504   0.19404 
H          H       0.17504   0.01812   0.44404 
H          H       0.32496   0.48188   0.94404 
H          H       0.42168   0.66116   0.09163 
H          H       0.07832   0.83884   0.59163 
H          H       0.33884   0.92168   0.34163 
H          H       0.16116   0.57832   0.84163 
H          H       0.57832   0.83884   0.15837 
H          H       0.92168   0.66116   0.65837 
H          H       0.66116   0.57832   0.90837 
H          H       0.83884   0.92168   0.40837 
H          H       0.92168   0.16116   0.59163 
H          H       0.57832   0.33884   0.09163 
H          H       0.83884   0.42168   0.84163 
H          H       0.66116   0.07832   0.34163 
H          H       0.07832   0.33884   0.65837 
H          H       0.42168   0.16116   0.15837 
H          H       0.16116   0.07832   0.40837 
H          H       0.33884   0.42168   0.90837 
H          H       0.49255   0.60917   0.51670 
H          H       0.00745   0.89083   0.01670 
H          H       0.39083   0.99255   0.76670 
H          H       0.10917   0.50745   0.26670 
H          H       0.50745   0.89083   0.73330 
H          H       0.99255   0.60917   0.23330 
H          H       0.60917   0.50745   0.48330 
H          H       0.89083   0.99255   0.98330 
H          H       0.99255   0.10917   0.01670 
H          H       0.50745   0.39083   0.51670 
H          H       0.89083   0.49255   0.26670 
H          H       0.60917   0.00745   0.76670 
H          H       0.00745   0.39083   0.23330 
H          H       0.49255   0.10917   0.73330 
H          H       0.10917   0.00745   0.98330 
H          H       0.39083   0.49255   0.48330 
H          H       0.49669   0.54653   0.32334 
H          H       0.00331   0.95347   0.82334 
H          H       0.45347   0.99669   0.57334 
H          H       0.04653   0.50331   0.07334 
H          H       0.50331   0.95347   0.92666 
H          H       0.99669   0.54653   0.42666 
H          H       0.54653   0.50331   0.67666 
H          H       0.95347   0.99669   0.17666 
H          H       0.99669   0.04653   0.82334 
H          H       0.50331   0.45347   0.32334 
H          H       0.95347   0.49669   0.07334 
H          H       0.54653   0.00331   0.57334 
H          H       0.00331   0.45347   0.42666 
H          H       0.49669   0.04653   0.92666 
H          H       0.04653   0.00331   0.17666 
H          H       0.45347   0.49669   0.67666 
H          H       0.48713   0.69111   0.34096 
H          H       0.01287   0.80889   0.84096 
H          H       0.30889   0.98713   0.59096 
H          H       0.19111   0.51287   0.09096 
H          H       0.51287   0.80889   0.90904 
H          H       0.98713   0.69111   0.40904 
H          H       0.69111   0.51287   0.65904 
H          H       0.80889   0.98713   0.15904 
H          H       0.98713   0.19111   0.84096 
H          H       0.51287   0.30889   0.34096 
H          H       0.80889   0.48713   0.09096 
H          H       0.69111   0.01287   0.59096 
H          H       0.01287   0.30889   0.40904 
H          H       0.48713   0.19111   0.90904 
H          H       0.19111   0.01287   0.15904 
H          H       0.30889   0.48713   0.65904 
H          H       0.47529   0.73543   0.28680 
H          H       0.02471   0.76457   0.78680 
H          H       0.26457   0.97529   0.53680 
H          H       0.23543   0.52471   0.03680 
H          H       0.52471   0.76457   0.96320 
H          H       0.97529   0.73543   0.46320 
H          H       0.73543   0.52471   0.71320 
H          H       0.76457   0.97529   0.21320 
H          H       0.97529   0.23543   0.78680 
H          H       0.52471   0.26457   0.28680 
H          H       0.76457   0.47529   0.03680 
H          H       0.73543   0.02471   0.53680 
H          H       0.02471   0.26457   0.46320 
H          H       0.47529   0.23543   0.96320 
H          H       0.23543   0.02471   0.21320 
H          H       0.26457   0.47529   0.71320 
H          H       0.48504   0.60485   0.18132 
H          H       0.01496   0.89515   0.68132 
H          H       0.39515   0.98504   0.43132 
H          H       0.10485   0.51496   0.93132 
H          H       0.51496   0.89515   0.06868 
H          H       0.98504   0.60485   0.56868 
H          H       0.60485   0.51496   0.81868 
H          H       0.89515   0.98504   0.31868 
H          H       0.98504   0.10485   0.68132 
H          H       0.51496   0.39515   0.18132 
H          H       0.89515   0.48504   0.93132 
H          H       0.60485   0.01496   0.43132 
H          H       0.01496   0.39515   0.56868 
H          H       0.48504   0.10485   0.06868 
H          H       0.10485   0.01496   0.31868 
H          H       0.39515   0.48504   0.81868 
C          C       0.50000   0.50000   0.50000 
C          C       0.00000   0.00000   0.00000 
C          C       0.50000   0.00000   0.75000 
C          C       0.00000   0.50000   0.25000 
