data_crystal

_cell_length_a    26.37700
_cell_length_b    26.37700
_cell_length_c    24.66640
_cell_angle_alpha 90.00000
_cell_angle_beta  90.00000
_cell_angle_gamma 90.00000

_space_group_name_Hall 'P 1'
_space_group_name_H-M_alt  'P 1'

loop_
_symmetry_equiv_pos_as_xyz
'x,y,z' 

loop_
_atom_site_label
_atom_site_type_symbol
_atom_site_fract_x
_atom_site_fract_y
_atom_site_fract_z
C          C       0.49993   0.59398   0.47556 
C          C       0.00007   0.90602   0.97556 
C          C       0.40602   0.99993   0.72556 
C          C       0.09398   0.50007   0.22556 
C          C       0.50007   0.90602   0.77444 
C          C       0.99993   0.59398   0.27444 
C          C       0.59398   0.50007   0.52444 
C          C       0.90602   0.99993   0.02444 
C          C       0.99993   0.09398   0.97556 
C          C       0.50007   0.40602   0.47556 
C          C       0.90602   0.49993   0.22556 
C          C       0.59398   0.00007   0.72556 
C          C       0.00007   0.40602   0.27444 
C          C       0.49993   0.09398   0.77444 
C          C       0.09398   0.00007   0.02444 
C          C       0.40602   0.49993   0.52444 
C          C       0.49990   0.62957   0.43254 
C          C       0.00010   0.87043   0.93254 
C          C       0.37043   0.99990   0.68254 
C          C       0.12957   0.50010   0.18254 
C          C       0.50010   0.87043   0.81746 
C          C       0.99990   0.62957   0.31746 
C          C       0.62957   0.50010   0.56746 
C          C       0.87043   0.99990   0.06746 
C          C       0.99990   0.12957   0.93254 
C          C       0.50010   0.37043   0.43254 
C          C       0.87043   0.49990   0.18254 
C          C       0.62957   0.00010   0.68254 
C          C       0.00010   0.37043   0.31746 
C          C       0.49990   0.12957   0.81746 
C          C       0.12957   0.00010   0.06746 
C          C       0.37043   0.49990   0.56746 
C          C       0.49993   0.61195   0.37817 
C          C       0.00007   0.88805   0.87817 
C          C       0.38805   0.99993   0.62817 
C          C       0.11195   0.50007   0.12817 
C          C       0.50007   0.88805   0.87183 
C          C       0.99993   0.61195   0.37183 
C          C       0.61195   0.50007   0.62183 
C          C       0.88805   0.99993   0.12183 
C          C       0.99993   0.11195   0.87817 
C          C       0.50007   0.38805   0.37817 
C          C       0.88805   0.49993   0.12817 
C          C       0.61195   0.00007   0.62817 
C          C       0.00007   0.38805   0.37183 
C          C       0.49993   0.11195   0.87183 
C          C       0.11195   0.00007   0.12183 
C          C       0.38805   0.49993   0.62183 
C          C       0.49997   0.55959   0.36699 
C          C       0.00003   0.94041   0.86699 
C          C       0.44041   0.99997   0.61699 
C          C       0.05959   0.50003   0.11699 
C          C       0.50003   0.94041   0.88301 
C          C       0.99997   0.55959   0.38301 
C          C       0.55959   0.50003   0.63301 
C          C       0.94041   0.99997   0.13301 
C          C       0.99997   0.05959   0.86699 
C          C       0.50003   0.44041   0.36699 
C          C       0.94041   0.49997   0.11699 
C          C       0.55959   0.00003   0.61699 
C          C       0.00003   0.44041   0.38301 
C          C       0.49997   0.05959   0.88301 
C          C       0.05959   0.00003   0.13301 
C          C       0.44041   0.49997   0.63301 
C          C       0.49998   0.52593   0.41035 
C          C       0.00002   0.97407   0.91035 
C          C       0.47407   0.99998   0.66035 
C          C       0.02593   0.50002   0.16035 
C          C       0.50002   0.97407   0.83965 
C          C       0.99998   0.52593   0.33965 
C          C       0.52593   0.50002   0.58965 
C          C       0.97407   0.99998   0.08965 
C          C       0.99998   0.02593   0.91035 
C          C       0.50002   0.47407   0.41035 
C          C       0.97407   0.49998   0.16035 
C          C       0.52593   0.00002   0.66035 
C          C       0.00002   0.47407   0.33965 
C          C       0.49998   0.02593   0.83965 
C          C       0.02593   0.00002   0.08965 
C          C       0.47407   0.49998   0.58965 
C          C       0.49997   0.54224   0.46346 
C          C       0.00003   0.95776   0.96346 
C          C       0.45776   0.99997   0.71346 
C          C       0.04224   0.50003   0.21346 
C          C       0.50003   0.95776   0.78654 
C          C       0.99997   0.54224   0.28654 
C          C       0.54224   0.50003   0.53654 
C          C       0.95776   0.99997   0.03654 
C          C       0.99997   0.04224   0.96346 
C          C       0.50003   0.45776   0.46346 
C          C       0.95776   0.49997   0.21346 
C          C       0.54224   0.00003   0.71346 
C          C       0.00003   0.45776   0.28654 
C          C       0.49997   0.04224   0.78654 
C          C       0.04224   0.00003   0.03654 
C          C       0.45776   0.49997   0.53654 
N          N       0.49998   0.63378   0.28310 
N          N       0.00002   0.86622   0.78310 
N          N       0.36622   0.99998   0.53310 
N          N       0.13378   0.50002   0.03310 
N          N       0.50002   0.86622   0.96690 
N          N       0.99998   0.63378   0.46690 
N          N       0.63378   0.50002   0.71690 
N          N       0.86622   0.99998   0.21690 
N          N       0.99998   0.13378   0.78310 
N          N       0.50002   0.36622   0.28310 
N          N       0.86622   0.49998   0.03310 
N          N       0.63378   0.00002   0.53310 
N          N       0.00002   0.36622   0.46690 
N          N       0.49998   0.13378   0.96690 
N          N       0.13378   0.00002   0.21690 
N          N       0.36622   0.49998   0.71690 
C          C       0.49993   0.64859   0.33322 
C          C       0.00007   0.85141   0.83322 
C          C       0.35141   0.99993   0.58322 
C          C       0.14859   0.50007   0.08322 
C          C       0.50007   0.85141   0.91678 
C          C       0.99993   0.64859   0.41678 
C          C       0.64859   0.50007   0.66678 
C          C       0.85141   0.99993   0.16678 
C          C       0.99993   0.14859   0.83322 
C          C       0.50007   0.35141   0.33322 
C          C       0.85141   0.49993   0.08322 
C          C       0.64859   0.00007   0.58322 
C          C       0.00007   0.35141   0.41678 
C          C       0.49993   0.14859   0.91678 
C          C       0.14859   0.00007   0.16678 
C          C       0.35141   0.49993   0.66678 
C          C       0.49993   0.72082   0.24548 
C          C       0.00007   0.77918   0.74548 
C          C       0.27918   0.99993   0.49548 
C          C       0.22082   0.50007   0.99548 
C          C       0.50007   0.77918   0.00452 
C          C       0.99993   0.72082   0.50452 
C          C       0.72082   0.50007   0.75452 
C          C       0.77918   0.99993   0.25452 
C          C       0.99993   0.22082   0.74548 
C          C       0.50007   0.27918   0.24548 
C          C       0.77918   0.49993   0.99548 
C          C       0.72082   0.00007   0.49548 
C          C       0.00007   0.27918   0.50452 
C          C       0.49993   0.22082   0.00452 
C          C       0.22082   0.00007   0.25452 
C          C       0.27918   0.49993   0.75452 
C          C       0.49993   0.75322   0.20067 
C          C       0.00007   0.74678   0.70067 
C          C       0.24678   0.99993   0.45067 
C          C       0.25322   0.50007   0.95067 
C          C       0.50007   0.74678   0.04933 
C          C       0.99993   0.75322   0.54933 
C          C       0.75322   0.50007   0.79933 
C          C       0.74678   0.99993   0.29933 
C          C       0.99993   0.25322   0.70067 
C          C       0.50007   0.24678   0.20067 
C          C       0.74678   0.49993   0.95067 
C          C       0.75322   0.00007   0.45067 
C          C       0.00007   0.24678   0.54933 
C          C       0.49993   0.25322   0.04933 
C          C       0.25322   0.00007   0.29933 
C          C       0.24678   0.49993   0.79933 
C          C       0.49999   0.73368   0.14759 
C          C       0.00001   0.76632   0.64759 
C          C       0.26632   0.99999   0.39759 
C          C       0.23368   0.50001   0.89759 
C          C       0.50001   0.76632   0.10241 
C          C       0.99999   0.73368   0.60241 
C          C       0.73368   0.50001   0.85241 
C          C       0.76632   0.99999   0.35241 
C          C       0.99999   0.23368   0.64759 
C          C       0.50001   0.26632   0.14759 
C          C       0.76632   0.49999   0.89759 
C          C       0.73368   0.00001   0.39759 
C          C       0.00001   0.26632   0.60241 
C          C       0.49999   0.23368   0.10241 
C          C       0.23368   0.00001   0.35241 
C          C       0.26632   0.49999   0.85241 
C          C       0.50004   0.68073   0.14076 
C          C       0.99996   0.81927   0.64076 
C          C       0.31927   0.00004   0.39076 
C          C       0.18073   0.49996   0.89076 
C          C       0.49996   0.81927   0.10924 
C          C       0.00004   0.68073   0.60924 
C          C       0.68073   0.49996   0.85924 
C          C       0.81927   0.00004   0.35924 
C          C       0.00004   0.18073   0.64076 
C          C       0.49996   0.31927   0.14076 
C          C       0.81927   0.50004   0.89076 
C          C       0.68073   0.99996   0.39076 
C          C       0.99996   0.31927   0.60924 
C          C       0.50004   0.18073   0.10924 
C          C       0.18073   0.99996   0.35924 
C          C       0.31927   0.50004   0.85924 
C          C       0.50003   0.64831   0.18556 
C          C       0.99997   0.85169   0.68556 
C          C       0.35169   0.00003   0.43556 
C          C       0.14831   0.49997   0.93556 
C          C       0.49997   0.85169   0.06444 
C          C       0.00003   0.64831   0.56444 
C          C       0.64831   0.49997   0.81444 
C          C       0.85169   0.00003   0.31444 
C          C       0.00003   0.14831   0.68556 
C          C       0.49997   0.35169   0.18556 
C          C       0.85169   0.50003   0.93556 
C          C       0.64831   0.99997   0.43556 
C          C       0.99997   0.35169   0.56444 
C          C       0.50003   0.14831   0.06444 
C          C       0.14831   0.99997   0.31444 
C          C       0.35169   0.50003   0.81444 
C          C       0.49998   0.66806   0.23810 
C          C       0.00002   0.83194   0.73810 
C          C       0.33194   0.99998   0.48810 
C          C       0.16806   0.50002   0.98810 
C          C       0.50002   0.83194   0.01190 
C          C       0.99998   0.66806   0.51190 
C          C       0.66806   0.50002   0.76190 
C          C       0.83194   0.99998   0.26190 
C          C       0.99998   0.16806   0.73810 
C          C       0.50002   0.33194   0.23810 
C          C       0.83194   0.49998   0.98810 
C          C       0.66806   0.00002   0.48810 
C          C       0.00002   0.33194   0.51190 
C          C       0.49998   0.16806   0.01190 
C          C       0.16806   0.00002   0.26190 
C          C       0.33194   0.49998   0.76190 
O          O       0.49987   0.68221   0.44196 
O          O       0.00013   0.81779   0.94196 
O          O       0.31779   0.99987   0.69196 
O          O       0.18221   0.50013   0.19196 
O          O       0.50013   0.81779   0.80804 
O          O       0.99987   0.68221   0.30804 
O          O       0.68221   0.50013   0.55804 
O          O       0.81779   0.99987   0.05804 
O          O       0.99987   0.18221   0.94196 
O          O       0.50013   0.31779   0.44196 
O          O       0.81779   0.49987   0.19196 
O          O       0.68221   0.00013   0.69196 
O          O       0.00013   0.31779   0.30804 
O          O       0.49987   0.18221   0.80804 
O          O       0.18221   0.00013   0.05804 
O          O       0.31779   0.49987   0.55804 
C          C       0.49970   0.69740   0.49737 
C          C       0.00030   0.80260   0.99737 
C          C       0.30260   0.99970   0.74737 
C          C       0.19740   0.50030   0.24737 
C          C       0.50030   0.80260   0.75263 
C          C       0.99970   0.69740   0.25263 
C          C       0.69740   0.50030   0.50263 
C          C       0.80260   0.99970   0.00263 
C          C       0.99970   0.19740   0.99737 
C          C       0.50030   0.30260   0.49737 
C          C       0.80260   0.49970   0.24737 
C          C       0.69740   0.00030   0.74737 
C          C       0.00030   0.30260   0.25263 
C          C       0.49970   0.19740   0.75263 
C          C       0.19740   0.00030   0.00263 
C          C       0.30260   0.49970   0.50263 
H          H       0.47934   0.66754   0.52271 
H          H       0.02066   0.83246   0.02271 
H          H       0.33246   0.97934   0.77271 
H          H       0.16754   0.52066   0.27271 
H          H       0.52066   0.83246   0.72729 
H          H       0.97934   0.66754   0.22729 
H          H       0.66754   0.52066   0.47729 
H          H       0.83246   0.97934   0.97729 
H          H       0.97934   0.16754   0.02271 
H          H       0.52066   0.33246   0.52271 
H          H       0.83246   0.47934   0.27271 
H          H       0.66754   0.02066   0.77271 
H          H       0.02066   0.33246   0.22729 
H          H       0.47934   0.16754   0.72729 
H          H       0.16754   0.02066   0.97729 
H          H       0.33246   0.47934   0.47729 
H          H       0.47922   0.73526   0.50148 
H          H       0.02078   0.76474   0.00148 
H          H       0.26474   0.97922   0.75148 
H          H       0.23526   0.52078   0.25148 
H          H       0.52078   0.76474   0.74852 
H          H       0.97922   0.73526   0.24852 
H          H       0.73526   0.52078   0.49852 
H          H       0.76474   0.97922   0.99852 
H          H       0.97922   0.23526   0.00148 
H          H       0.52078   0.26474   0.50148 
H          H       0.76474   0.47922   0.25148 
H          H       0.73526   0.02078   0.75148 
H          H       0.02078   0.26474   0.24852 
H          H       0.47922   0.23526   0.74852 
H          H       0.23526   0.02078   0.99852 
H          H       0.26474   0.47922   0.49852 
H          H       0.54040   0.70156   0.51226 
H          H       0.95960   0.79844   0.01226 
H          H       0.29844   0.04040   0.76226 
H          H       0.20156   0.45960   0.26226 
H          H       0.45960   0.79844   0.73774 
H          H       0.04040   0.70156   0.23774 
H          H       0.70156   0.45960   0.48774 
H          H       0.79844   0.04040   0.98774 
H          H       0.04040   0.20156   0.01226 
H          H       0.45960   0.29844   0.51226 
H          H       0.79844   0.54040   0.26226 
H          H       0.70156   0.95960   0.76226 
H          H       0.95960   0.29844   0.23774 
H          H       0.54040   0.20156   0.73774 
H          H       0.20156   0.95960   0.98774 
H          H       0.29844   0.54040   0.48774 
H          H       0.49992   0.60770   0.51939 
H          H       0.00008   0.89230   0.01939 
H          H       0.39230   0.99992   0.76939 
H          H       0.10770   0.50008   0.26939 
H          H       0.50008   0.89230   0.73061 
H          H       0.99992   0.60770   0.23061 
H          H       0.60770   0.50008   0.48061 
H          H       0.89230   0.99992   0.98061 
H          H       0.99992   0.10770   0.01939 
H          H       0.50008   0.39230   0.51939 
H          H       0.89230   0.49992   0.26939 
H          H       0.60770   0.00008   0.76939 
H          H       0.00008   0.39230   0.23061 
H          H       0.49992   0.10770   0.73061 
H          H       0.10770   0.00008   0.98061 
H          H       0.39230   0.49992   0.48061 
H          H       0.49999   0.54573   0.32322 
H          H       0.00001   0.95427   0.82322 
H          H       0.45427   0.99999   0.57322 
H          H       0.04573   0.50001   0.07322 
H          H       0.50001   0.95427   0.92678 
H          H       0.99999   0.54573   0.42678 
H          H       0.54573   0.50001   0.67678 
H          H       0.95427   0.99999   0.17678 
H          H       0.99999   0.04573   0.82322 
H          H       0.50001   0.45427   0.32322 
H          H       0.95427   0.49999   0.07322 
H          H       0.54573   0.00001   0.57322 
H          H       0.00001   0.45427   0.42678 
H          H       0.49999   0.04573   0.92678 
H          H       0.04573   0.00001   0.17678 
H          H       0.45427   0.49999   0.67678 
H          H       0.49989   0.69100   0.34210 
H          H       0.00011   0.80900   0.84210 
H          H       0.30900   0.99989   0.59210 
H          H       0.19100   0.50011   0.09210 
H          H       0.50011   0.80900   0.90790 
H          H       0.99989   0.69100   0.40790 
H          H       0.69100   0.50011   0.65790 
H          H       0.80900   0.99989   0.15790 
H          H       0.99989   0.19100   0.84210 
H          H       0.50011   0.30900   0.34210 
H          H       0.80900   0.49989   0.09210 
H          H       0.69100   0.00011   0.59210 
H          H       0.00011   0.30900   0.40790 
H          H       0.49989   0.19100   0.90790 
H          H       0.19100   0.00011   0.15790 
H          H       0.30900   0.49989   0.65790 
H          H       0.49989   0.73721   0.28824 
H          H       0.00011   0.76279   0.78824 
H          H       0.26279   0.99989   0.53824 
H          H       0.23721   0.50011   0.03824 
H          H       0.50011   0.76279   0.96176 
H          H       0.99989   0.73721   0.46176 
H          H       0.73721   0.50011   0.71176 
H          H       0.76279   0.99989   0.21176 
H          H       0.99989   0.23721   0.78824 
H          H       0.50011   0.26279   0.28824 
H          H       0.76279   0.49989   0.03824 
H          H       0.73721   0.00011   0.53824 
H          H       0.00011   0.26279   0.46176 
H          H       0.49989   0.23721   0.96176 
H          H       0.23721   0.00011   0.21176 
H          H       0.26279   0.49989   0.71176 
H          H       0.49988   0.79605   0.20687 
H          H       0.00012   0.70395   0.70687 
H          H       0.20395   0.99988   0.45687 
H          H       0.29605   0.50012   0.95687 
H          H       0.50012   0.70395   0.04313 
H          H       0.99988   0.79605   0.54313 
H          H       0.79605   0.50012   0.79313 
H          H       0.70395   0.99988   0.29313 
H          H       0.99988   0.29605   0.70687 
H          H       0.50012   0.20395   0.20687 
H          H       0.70395   0.49988   0.95687 
H          H       0.79605   0.00012   0.45687 
H          H       0.00012   0.20395   0.54313 
H          H       0.49988   0.29605   0.04313 
H          H       0.29605   0.00012   0.29313 
H          H       0.20395   0.49988   0.79313 
H          H       0.50009   0.66376   0.09826 
H          H       0.99991   0.83624   0.59826 
H          H       0.33624   0.00009   0.34826 
H          H       0.16376   0.49991   0.84826 
H          H       0.49991   0.83624   0.15174 
H          H       0.00009   0.66376   0.65174 
H          H       0.66376   0.49991   0.90174 
H          H       0.83624   0.00009   0.40174 
H          H       0.00009   0.16376   0.59826 
H          H       0.49991   0.33624   0.09826 
H          H       0.83624   0.50009   0.84826 
H          H       0.66376   0.99991   0.34826 
H          H       0.99991   0.33624   0.65174 
H          H       0.50009   0.16376   0.15174 
H          H       0.16376   0.99991   0.40174 
H          H       0.33624   0.50009   0.90174 
H          H       0.50006   0.60548   0.17934 
H          H       0.99994   0.89452   0.67934 
H          H       0.39452   0.00006   0.42934 
H          H       0.10548   0.49994   0.92934 
H          H       0.49994   0.89452   0.07066 
H          H       0.00006   0.60548   0.57066 
H          H       0.60548   0.49994   0.82066 
H          H       0.89452   0.00006   0.32066 
H          H       0.00006   0.10548   0.67934 
H          H       0.49994   0.39452   0.17934 
H          H       0.89452   0.50006   0.92934 
H          H       0.60548   0.99994   0.42934 
H          H       0.99994   0.39452   0.57066 
H          H       0.50006   0.10548   0.07066 
H          H       0.10548   0.99994   0.32066 
H          H       0.39452   0.50006   0.82066 
C          C       0.50000   0.50000   0.50000 
C          C       0.00000   0.00000   0.00000 
C          C       0.50000   0.00000   0.75000 
C          C       0.00000   0.50000   0.25000 
