data_crystal
 
_cell_length_a    18.36300
_cell_length_b    18.36300
_cell_length_c    37.65780
_cell_angle_alpha 90.00000
_cell_angle_beta  90.00000
_cell_angle_gamma 90.00000
 
_space_group_name_Hall 'P 1'
_space_group_name_H-M_alt  'P 1'
 
loop_
_symmetry_equiv_pos_as_xyz
 'x,y,z' 
 
loop_
_atom_site_label
_atom_site_type_symbol
_atom_site_fract_x
_atom_site_fract_y
_atom_site_fract_z
C          C       0.47348   0.47353   0.56003 
C          C       0.52652   0.52647   0.56003 
C          C       0.02647   0.97348   0.06003 
C          C       0.97353   0.02652   0.06003 
C          C       0.02652   0.02647   0.93997 
C          C       0.97348   0.97353   0.93997 
C          C       0.47353   0.52652   0.43997 
C          C       0.52647   0.47348   0.43997 
C          C       0.43991   0.44001   0.58884 
C          C       0.56009   0.55999   0.58884 
C          C       0.05999   0.93991   0.08884 
C          C       0.94001   0.06009   0.08884 
C          C       0.06009   0.05999   0.91116 
C          C       0.93991   0.94001   0.91116 
C          C       0.44001   0.56009   0.41116 
C          C       0.55999   0.43991   0.41116 
C          C       0.38646   0.38665   0.58227 
C          C       0.61354   0.61335   0.58227 
C          C       0.11335   0.88646   0.08227 
C          C       0.88665   0.11354   0.08227 
C          C       0.11354   0.11335   0.91773 
C          C       0.88646   0.88665   0.91773 
C          C       0.38665   0.61354   0.41773 
C          C       0.61335   0.38646   0.41773 
C          C       0.36750   0.36777   0.54692 
C          C       0.63250   0.63223   0.54692 
C          C       0.13223   0.86750   0.04692 
C          C       0.86777   0.13250   0.04692 
C          C       0.13250   0.13223   0.95308 
C          C       0.86750   0.86777   0.95308 
C          C       0.36777   0.63250   0.45308 
C          C       0.63223   0.36750   0.45308 
C          C       0.40285   0.40306   0.51827 
C          C       0.59715   0.59694   0.51827 
C          C       0.09694   0.90285   0.01827 
C          C       0.90306   0.09715   0.01827 
C          C       0.09715   0.09694   0.98173 
C          C       0.90285   0.90306   0.98173 
C          C       0.40306   0.59715   0.48173 
C          C       0.59694   0.40285   0.48173 
C          C       0.45553   0.45562   0.52551 
C          C       0.54447   0.54438   0.52551 
C          C       0.04438   0.95553   0.02551 
C          C       0.95562   0.04447   0.02551 
C          C       0.04447   0.04438   0.97449 
C          C       0.95553   0.95562   0.97449 
C          C       0.45562   0.54447   0.47449 
C          C       0.54438   0.45553   0.47449 
C          C       0.27803   0.27837   0.67044 
C          C       0.72197   0.72163   0.67044 
C          C       0.22163   0.77803   0.17044 
C          C       0.77837   0.22197   0.17044 
C          C       0.22197   0.22163   0.82956 
C          C       0.77803   0.77837   0.82956 
C          C       0.27837   0.72197   0.32956 
C          C       0.72163   0.27803   0.32956 
C          C       0.24580   0.24613   0.70015 
C          C       0.75420   0.75387   0.70015 
C          C       0.25387   0.74580   0.20015 
C          C       0.74613   0.25420   0.20015 
C          C       0.25420   0.25387   0.79985 
C          C       0.74580   0.74613   0.79985 
C          C       0.24613   0.75420   0.29985 
C          C       0.75387   0.24580   0.29985 
C          C       0.26666   0.26667   0.73464 
C          C       0.73334   0.73333   0.73464 
C          C       0.23333   0.76666   0.23464 
C          C       0.76667   0.23334   0.23464 
C          C       0.23334   0.23333   0.76536 
C          C       0.76666   0.76667   0.76536 
C          C       0.26667   0.73334   0.26536 
C          C       0.73333   0.26666   0.26536 
C          C       0.32063   0.32035   0.73859 
C          C       0.67937   0.67965   0.73859 
C          C       0.17965   0.82063   0.23859 
C          C       0.82035   0.17937   0.23859 
C          C       0.17937   0.17965   0.76141 
C          C       0.82063   0.82035   0.76141 
C          C       0.32035   0.67937   0.26141 
C          C       0.67965   0.32063   0.26141 
C          C       0.35287   0.35262   0.70890 
C          C       0.64713   0.64738   0.70890 
C          C       0.14738   0.85287   0.20890 
C          C       0.85262   0.14713   0.20890 
C          C       0.14713   0.14738   0.79110 
C          C       0.85287   0.85262   0.79110 
C          C       0.35262   0.64713   0.29110 
C          C       0.64738   0.35287   0.29110 
C          C       0.33188   0.33193   0.67469 
C          C       0.66812   0.66807   0.67469 
C          C       0.16807   0.83188   0.17469 
C          C       0.83193   0.16812   0.17469 
C          C       0.16812   0.16807   0.82531 
C          C       0.83188   0.83193   0.82531 
C          C       0.33193   0.66812   0.32531 
C          C       0.66807   0.33188   0.32531 
C          C       0.14972   0.85006   0.11219 
C          C       0.85028   0.14994   0.11219 
C          C       0.64994   0.64972   0.61219 
C          C       0.35006   0.35028   0.61219 
C          C       0.35028   0.64994   0.38781 
C          C       0.64972   0.35006   0.38781 
C          C       0.85006   0.85028   0.88781 
C          C       0.14994   0.14972   0.88781 
N          N       0.13393   0.86601   0.14483 
N          N       0.86607   0.13399   0.14483 
N          N       0.63399   0.63393   0.64483 
N          N       0.36601   0.36607   0.64483 
N          N       0.36607   0.63399   0.35517 
N          N       0.63393   0.36601   0.35517 
N          N       0.86601   0.86607   0.85517 
N          N       0.13399   0.13393   0.85517 
O          O       0.81422   0.18622   0.04148 
O          O       0.18578   0.81378   0.04148 
O          O       0.31378   0.31422   0.54148 
O          O       0.68622   0.68578   0.54148 
O          O       0.68578   0.31378   0.45852 
O          O       0.31422   0.68622   0.45852 
O          O       0.18622   0.18578   0.95852 
O          O       0.81378   0.81422   0.95852 
C          C       0.79779   0.20273   0.00541 
C          C       0.20221   0.79727   0.00541 
C          C       0.29727   0.29779   0.50541 
C          C       0.70273   0.70221   0.50541 
C          C       0.70221   0.29727   0.49459 
C          C       0.29779   0.70273   0.49459 
C          C       0.20273   0.20221   0.99459 
C          C       0.79727   0.79779   0.99459 
H          H       0.84824   0.19343   0.98836 
H          H       0.15176   0.80657   0.98836 
H          H       0.30657   0.34824   0.48836 
H          H       0.69343   0.65176   0.48836 
H          H       0.65176   0.30657   0.51164 
H          H       0.34824   0.69343   0.51164 
H          H       0.19343   0.15176   0.01164 
H          H       0.80657   0.84824   0.01164 
H          H       0.78013   0.26208   0.00320 
H          H       0.21987   0.73792   0.00320 
H          H       0.23792   0.28013   0.50320 
H          H       0.76208   0.71987   0.50320 
H          H       0.71987   0.23792   0.49680 
H          H       0.28013   0.76208   0.49680 
H          H       0.26208   0.21987   0.99680 
H          H       0.73792   0.78013   0.99680 
H          H       0.75187   0.16591   0.99579 
H          H       0.24813   0.83409   0.99579 
H          H       0.33409   0.25187   0.49579 
H          H       0.66591   0.74813   0.49579 
H          H       0.74813   0.33409   0.50421 
H          H       0.25187   0.66591   0.50421 
H          H       0.16591   0.24813   0.00421 
H          H       0.83409   0.75187   0.00421 
H          H       0.19265   0.80695   0.10617 
H          H       0.80735   0.19305   0.10617 
H          H       0.69305   0.69265   0.60617 
H          H       0.30695   0.30735   0.60617 
H          H       0.30735   0.69305   0.39383 
H          H       0.69265   0.30695   0.39383 
H          H       0.80695   0.80735   0.89383 
H          H       0.19305   0.19265   0.89383 
H          H       0.45533   0.45539   0.61719 
H          H       0.54467   0.54461   0.61719 
H          H       0.04461   0.95533   0.11719 
H          H       0.95539   0.04467   0.11719 
H          H       0.04467   0.04461   0.88281 
H          H       0.95533   0.95539   0.88281 
H          H       0.45539   0.54467   0.38281 
H          H       0.54461   0.45533   0.38281 
H          H       0.38808   0.38834   0.48976 
H          H       0.61192   0.61166   0.48976 
H          H       0.11166   0.88808   0.98976 
H          H       0.88834   0.11192   0.98976 
H          H       0.11192   0.11166   0.01024 
H          H       0.88808   0.88834   0.01024 
H          H       0.38834   0.61192   0.51024 
H          H       0.61166   0.38808   0.51024 
H          H       0.26062   0.26120   0.64261 
H          H       0.73938   0.73880   0.64261 
H          H       0.23880   0.76062   0.14261 
H          H       0.76120   0.23938   0.14261 
H          H       0.23938   0.23880   0.85739 
H          H       0.76062   0.76120   0.85739 
H          H       0.26120   0.73938   0.35739 
H          H       0.73880   0.26062   0.35739 
H          H       0.20211   0.20269   0.69642 
H          H       0.79789   0.79731   0.69642 
H          H       0.29731   0.70211   0.19642 
H          H       0.70269   0.29789   0.19642 
H          H       0.29789   0.29731   0.80358 
H          H       0.70211   0.70269   0.80358 
H          H       0.20269   0.79789   0.30358 
H          H       0.79731   0.20211   0.30358 
H          H       0.33835   0.33781   0.76633 
H          H       0.66165   0.66219   0.76633 
H          H       0.16219   0.83835   0.26633 
H          H       0.83781   0.16165   0.26633 
H          H       0.16165   0.16219   0.73367 
H          H       0.83835   0.83781   0.73367 
H          H       0.33781   0.66165   0.23367 
H          H       0.66219   0.33835   0.23367 
H          H       0.39657   0.39610   0.71251 
H          H       0.60343   0.60390   0.71251 
H          H       0.10390   0.89657   0.21251 
H          H       0.89610   0.10343   0.21251 
H          H       0.10343   0.10390   0.78749 
H          H       0.89657   0.89610   0.78749 
H          H       0.39610   0.60343   0.28749 
H          H       0.60390   0.39657   0.28749 
C          C       0.50000   0.50000   0.50000 
C          C       0.00000   0.00000   0.00000 
