data_crystal

_cell_length_a    18.89410
_cell_length_b    18.89410
_cell_length_c    37.28770
_cell_angle_alpha 90.00000
_cell_angle_beta  90.00000
_cell_angle_gamma 90.00000

_space_group_name_Hall 'P 1'
_space_group_name_H-M_alt  'P 1'

loop_
_symmetry_equiv_pos_as_xyz
'x,y,z' 

loop_
_atom_site_label
_atom_site_type_symbol
_atom_site_fract_x
_atom_site_fract_y
_atom_site_fract_z
C          C       0.47485   0.47109   0.56064 
C          C       0.52515   0.52891   0.56064 
C          C       0.02891   0.97485   0.06064 
C          C       0.97109   0.02515   0.06064 
C          C       0.02515   0.02891   0.93936 
C          C       0.97485   0.97109   0.93936 
C          C       0.47109   0.52515   0.43936 
C          C       0.52891   0.47485   0.43936 
C          C       0.44411   0.43573   0.58938 
C          C       0.55589   0.56427   0.58938 
C          C       0.06427   0.94411   0.08938 
C          C       0.93573   0.05589   0.08938 
C          C       0.05589   0.06427   0.91062 
C          C       0.94411   0.93573   0.91062 
C          C       0.43573   0.55589   0.41062 
C          C       0.56427   0.44411   0.41062 
C          C       0.39608   0.38052   0.58216 
C          C       0.60392   0.61948   0.58216 
C          C       0.11948   0.89608   0.08216 
C          C       0.88052   0.10392   0.08216 
C          C       0.10392   0.11948   0.91784 
C          C       0.89608   0.88052   0.91784 
C          C       0.38052   0.60392   0.41784 
C          C       0.61948   0.39608   0.41784 
C          C       0.37973   0.36177   0.54626 
C          C       0.62027   0.63823   0.54626 
C          C       0.13823   0.87973   0.04626 
C          C       0.86177   0.12027   0.04626 
C          C       0.12027   0.13823   0.95374 
C          C       0.87973   0.86177   0.95374 
C          C       0.36177   0.62027   0.45374 
C          C       0.63823   0.37973   0.45374 
C          C       0.41220   0.39909   0.51772 
C          C       0.58780   0.60091   0.51772 
C          C       0.10091   0.91220   0.01772 
C          C       0.89909   0.08780   0.01772 
C          C       0.08780   0.10091   0.98228 
C          C       0.91220   0.89909   0.98228 
C          C       0.39909   0.58780   0.48228 
C          C       0.60091   0.41220   0.48228 
C          C       0.45954   0.45350   0.52558 
C          C       0.54046   0.54650   0.52558 
C          C       0.04650   0.95954   0.02558 
C          C       0.95350   0.04046   0.02558 
C          C       0.04046   0.04650   0.97442 
C          C       0.95954   0.95350   0.97442 
C          C       0.45350   0.54046   0.47442 
C          C       0.54650   0.45954   0.47442 
C          C       0.30163   0.26226   0.67016 
C          C       0.69837   0.73774   0.67016 
C          C       0.23774   0.80163   0.17016 
C          C       0.76226   0.19837   0.17016 
C          C       0.19837   0.23774   0.82984 
C          C       0.80163   0.76226   0.82984 
C          C       0.26226   0.69837   0.32984 
C          C       0.73774   0.30163   0.32984 
C          C       0.27013   0.22917   0.69962 
C          C       0.72987   0.77083   0.69962 
C          C       0.27083   0.77013   0.19962 
C          C       0.72917   0.22987   0.19962 
C          C       0.22987   0.27083   0.80038 
C          C       0.77013   0.72917   0.80038 
C          C       0.22917   0.72987   0.30038 
C          C       0.77083   0.27013   0.30038 
C          C       0.27536   0.25969   0.73459 
C          C       0.72464   0.74031   0.73459 
C          C       0.24031   0.77536   0.23459 
C          C       0.75969   0.22464   0.23459 
C          C       0.22464   0.24031   0.76541 
C          C       0.77536   0.75969   0.76541 
C          C       0.25969   0.72464   0.26541 
C          C       0.74031   0.27536   0.26541 
C          C       0.33400   0.30665   0.73913 
C          C       0.66600   0.69335   0.73913 
C          C       0.19335   0.83400   0.23913 
C          C       0.80665   0.16600   0.23913 
C          C       0.16600   0.19335   0.76087 
C          C       0.83400   0.80665   0.76087 
C          C       0.30665   0.66600   0.26087 
C          C       0.69335   0.33400   0.26087 
C          C       0.36516   0.33940   0.70947 
C          C       0.63484   0.66060   0.70947 
C          C       0.16060   0.86516   0.20947 
C          C       0.83940   0.13484   0.20947 
C          C       0.13484   0.16060   0.79053 
C          C       0.86516   0.83940   0.79053 
C          C       0.33940   0.63484   0.29053 
C          C       0.66060   0.36516   0.29053 
C          C       0.34489   0.32142   0.67484 
C          C       0.65511   0.67858   0.67484 
C          C       0.17858   0.84489   0.17484 
C          C       0.82142   0.15511   0.17484 
C          C       0.15511   0.17858   0.82516 
C          C       0.84489   0.82142   0.82516 
C          C       0.32142   0.65511   0.32516 
C          C       0.67858   0.34489   0.32516 
C          C       0.15794   0.86263   0.11197 
C          C       0.84206   0.13737   0.11197 
C          C       0.63737   0.65794   0.61197 
C          C       0.36263   0.34206   0.61197 
C          C       0.34206   0.63737   0.38803 
C          C       0.65794   0.36263   0.38803 
C          C       0.86263   0.84206   0.88803 
C          C       0.13737   0.15794   0.88803 
N          N       0.14240   0.87636   0.14511 
N          N       0.85760   0.12364   0.14511 
N          N       0.62364   0.64240   0.64511 
N          N       0.37636   0.35760   0.64511 
N          N       0.35760   0.62364   0.35489 
N          N       0.64240   0.37636   0.35489 
N          N       0.87636   0.85760   0.85489 
N          N       0.12364   0.14240   0.85489 
O          O       0.80629   0.16854   0.04016 
O          O       0.19371   0.83146   0.04016 
O          O       0.33146   0.30629   0.54016 
O          O       0.66854   0.69371   0.54016 
O          O       0.69371   0.33146   0.45984 
O          O       0.30629   0.66854   0.45984 
O          O       0.16854   0.19371   0.95984 
O          O       0.83146   0.80629   0.95984 
C          C       0.79010   0.18265   0.00355 
C          C       0.20990   0.81735   0.00355 
C          C       0.31735   0.29010   0.50355 
C          C       0.68265   0.70990   0.50355 
C          C       0.70990   0.31735   0.49645 
C          C       0.29010   0.68265   0.49645 
C          C       0.18265   0.20990   0.99645 
C          C       0.81735   0.79010   0.99645 
C          C       0.37677   0.30973   0.77271 
C          C       0.62323   0.69027   0.77271 
C          C       0.19027   0.87677   0.27271 
C          C       0.80973   0.12323   0.27271 
C          C       0.12323   0.19027   0.72729 
C          C       0.87677   0.80973   0.72729 
C          C       0.30973   0.62323   0.22729 
C          C       0.69027   0.37677   0.22729 
C          C       0.75145   0.84577   0.69339 
C          C       0.24855   0.15423   0.69339 
C          C       0.65423   0.25145   0.19339 
C          C       0.34577   0.74855   0.19339 
C          C       0.74855   0.65423   0.80661 
C          C       0.25145   0.34577   0.80661 
C          C       0.84577   0.24855   0.30661 
C          C       0.15423   0.75145   0.30661 
H          H       0.76567   0.85333   0.66393 
H          H       0.23433   0.14667   0.66393 
H          H       0.64667   0.26567   0.16393 
H          H       0.35333   0.73433   0.16393 
H          H       0.73433   0.64667   0.83607 
H          H       0.26567   0.35333   0.83607 
H          H       0.85333   0.23433   0.33607 
H          H       0.14667   0.76567   0.33607 
H          H       0.79938   0.85878   0.71076 
H          H       0.20062   0.14122   0.71076 
H          H       0.64122   0.29938   0.21076 
H          H       0.35878   0.70062   0.21076 
H          H       0.70062   0.64122   0.78924 
H          H       0.29938   0.35878   0.78924 
H          H       0.85878   0.20062   0.28924 
H          H       0.14122   0.79938   0.28924 
H          H       0.70581   0.88248   0.70073 
H          H       0.29419   0.11752   0.70073 
H          H       0.61752   0.20581   0.20073 
H          H       0.38248   0.79419   0.20073 
H          H       0.79419   0.61752   0.79927 
H          H       0.20581   0.38248   0.79927 
H          H       0.88248   0.29419   0.29927 
H          H       0.11752   0.70581   0.29927 
H          H       0.20232   0.82386   0.10539 
H          H       0.79768   0.17614   0.10539 
H          H       0.67614   0.70232   0.60539 
H          H       0.32386   0.29768   0.60539 
H          H       0.29768   0.67614   0.39461 
H          H       0.70232   0.32386   0.39461 
H          H       0.82386   0.79768   0.89461 
H          H       0.17614   0.20232   0.89461 
H          H       0.42743   0.34088   0.76755 
H          H       0.57257   0.65912   0.76755 
H          H       0.15912   0.92743   0.26755 
H          H       0.84088   0.07257   0.26755 
H          H       0.07257   0.15912   0.73245 
H          H       0.92743   0.84088   0.73245 
H          H       0.34088   0.57257   0.23245 
H          H       0.65912   0.42743   0.23245 
H          H       0.39078   0.25372   0.78159 
H          H       0.60922   0.74628   0.78159 
H          H       0.24628   0.89078   0.28159 
H          H       0.75372   0.10922   0.28159 
H          H       0.10922   0.24628   0.71841 
H          H       0.89078   0.75372   0.71841 
H          H       0.25372   0.60922   0.21841 
H          H       0.74628   0.39078   0.21841 
H          H       0.34479   0.33696   0.79467 
H          H       0.65521   0.66304   0.79467 
H          H       0.16304   0.84479   0.29467 
H          H       0.83696   0.15521   0.29467 
H          H       0.15521   0.16304   0.70533 
H          H       0.84479   0.83696   0.70533 
H          H       0.33696   0.65521   0.20533 
H          H       0.66304   0.34479   0.20533 
H          H       0.79762   0.13236   0.98709 
H          H       0.20238   0.86764   0.98709 
H          H       0.36764   0.29762   0.48709 
H          H       0.63236   0.70238   0.48709 
H          H       0.70238   0.36764   0.51291 
H          H       0.29762   0.63236   0.51291 
H          H       0.13236   0.20238   0.01291 
H          H       0.86764   0.79762   0.01291 
H          H       0.82687   0.22572   0.99300 
H          H       0.17313   0.77428   0.99300 
H          H       0.27428   0.32687   0.49300 
H          H       0.72572   0.67313   0.49300 
H          H       0.67313   0.27428   0.50700 
H          H       0.32687   0.72572   0.50700 
H          H       0.22572   0.17313   0.00700 
H          H       0.77428   0.82687   0.00700 
H          H       0.73285   0.20115   0.00125 
H          H       0.26715   0.79885   0.00125 
H          H       0.29885   0.23285   0.50125 
H          H       0.70115   0.76715   0.50125 
H          H       0.76715   0.29885   0.49875 
H          H       0.23285   0.70115   0.49875 
H          H       0.20115   0.26715   0.99875 
H          H       0.79885   0.73285   0.99875 
H          H       0.45795   0.45161   0.61803 
H          H       0.54205   0.54839   0.61803 
H          H       0.04839   0.95795   0.11803 
H          H       0.95161   0.04205   0.11803 
H          H       0.04205   0.04839   0.88197 
H          H       0.95795   0.95161   0.88197 
H          H       0.45161   0.54205   0.38197 
H          H       0.54839   0.45795   0.38197 
H          H       0.39949   0.38450   0.48876 
H          H       0.60051   0.61550   0.48876 
H          H       0.11550   0.89949   0.98876 
H          H       0.88450   0.10051   0.98876 
H          H       0.10051   0.11550   0.01124 
H          H       0.89949   0.88450   0.01124 
H          H       0.38450   0.60051   0.51124 
H          H       0.61550   0.39949   0.51124 
H          H       0.29211   0.24098   0.64196 
H          H       0.70789   0.75902   0.64196 
H          H       0.25902   0.79211   0.14196 
H          H       0.74098   0.20789   0.14196 
H          H       0.20789   0.25902   0.85804 
H          H       0.79211   0.74098   0.85804 
H          H       0.24098   0.70789   0.35804 
H          H       0.75902   0.29211   0.35804 
H          H       0.40773   0.38140   0.71355 
H          H       0.59227   0.61860   0.71355 
H          H       0.11860   0.90773   0.21355 
H          H       0.88140   0.09227   0.21355 
H          H       0.09227   0.11860   0.78645 
H          H       0.90773   0.88140   0.78645 
H          H       0.38140   0.59227   0.28645 
H          H       0.61860   0.40773   0.28645 
C          C       0.50000   0.50000   0.50000 
C          C       0.00000   0.00000   0.00000 
