data_crystal
 
_cell_length_a    26.68960
_cell_length_b    26.68960
_cell_length_c    24.97890
_cell_angle_alpha 90.00000
_cell_angle_beta  90.00000
_cell_angle_gamma 90.00000
 
_symmetry_space_group_name_Hall 'P 1'
_symmetry_space_group_name_H-M  'P 1'
 
loop_
_symmetry_equiv_pos_as_xyz
 'x,y,z' 
 
loop_
_atom_site_label
_atom_site_type_symbol
_atom_site_fract_x
_atom_site_fract_y
_atom_site_fract_z
C          C       0.50000   0.59472   0.47351 
C          C       0.00000   0.90528   0.97351 
C          C       0.40528   0.00000   0.72351 
C          C       0.09472   0.50000   0.22351 
C          C       0.50000   0.90528   0.77649 
C          C       0.00000   0.59472   0.27649 
C          C       0.59472   0.50000   0.52649 
C          C       0.90528   0.00000   0.02649 
C          C       0.00000   0.09472   0.97351 
C          C       0.50000   0.40528   0.47351 
C          C       0.90528   0.50000   0.22351 
C          C       0.59472   0.00000   0.72351 
C          C       0.00000   0.40528   0.27649 
C          C       0.50000   0.09472   0.77649 
C          C       0.09472   0.00000   0.02649 
C          C       0.40528   0.50000   0.52649 
C          C       0.50000   0.62971   0.43087 
C          C       0.00000   0.87029   0.93087 
C          C       0.37029   0.00000   0.68087 
C          C       0.12971   0.50000   0.18087 
C          C       0.50000   0.87029   0.81913 
C          C       0.00000   0.62971   0.31913 
C          C       0.62971   0.50000   0.56913 
C          C       0.87029   0.00000   0.06913 
C          C       0.00000   0.12971   0.93087 
C          C       0.50000   0.37029   0.43087 
C          C       0.87029   0.50000   0.18087 
C          C       0.62971   0.00000   0.68087 
C          C       0.00000   0.37029   0.31913 
C          C       0.50000   0.12971   0.81913 
C          C       0.12971   0.00000   0.06913 
C          C       0.37029   0.50000   0.56913 
C          C       0.50000   0.61205   0.37729 
C          C       0.00000   0.88795   0.87729 
C          C       0.38795   0.00000   0.62729 
C          C       0.11205   0.50000   0.12729 
C          C       0.50000   0.88795   0.87271 
C          C       0.00000   0.61205   0.37271 
C          C       0.61205   0.50000   0.62271 
C          C       0.88795   0.00000   0.12271 
C          C       0.00000   0.11205   0.87729 
C          C       0.50000   0.38795   0.37729 
C          C       0.88795   0.50000   0.12729 
C          C       0.61205   0.00000   0.62729 
C          C       0.00000   0.38795   0.37271 
C          C       0.50000   0.11205   0.87271 
C          C       0.11205   0.00000   0.12271 
C          C       0.38795   0.50000   0.62271 
C          C       0.50000   0.56024   0.36657 
C          C       0.00000   0.93976   0.86657 
C          C       0.43976   0.00000   0.61657 
C          C       0.06024   0.50000   0.11657 
C          C       0.50000   0.93976   0.88343 
C          C       0.00000   0.56024   0.38343 
C          C       0.56024   0.50000   0.63343 
C          C       0.93976   0.00000   0.13343 
C          C       0.00000   0.06024   0.86657 
C          C       0.50000   0.43976   0.36657 
C          C       0.93976   0.50000   0.11657 
C          C       0.56024   0.00000   0.61657 
C          C       0.00000   0.43976   0.38343 
C          C       0.50000   0.06024   0.88343 
C          C       0.06024   0.00000   0.13343 
C          C       0.43976   0.50000   0.63343 
C          C       0.50000   0.52711   0.40950 
C          C       0.00000   0.97289   0.90950 
C          C       0.47289   0.00000   0.65950 
C          C       0.02711   0.50000   0.15950 
C          C       0.50000   0.97289   0.84050 
C          C       0.00000   0.52711   0.34050 
C          C       0.52711   0.50000   0.59050 
C          C       0.97289   0.00000   0.09050 
C          C       0.00000   0.02711   0.90950 
C          C       0.50000   0.47289   0.40950 
C          C       0.97289   0.50000   0.15950 
C          C       0.52711   0.00000   0.65950 
C          C       0.00000   0.47289   0.34050 
C          C       0.50000   0.02711   0.84050 
C          C       0.02711   0.00000   0.09050 
C          C       0.47289   0.50000   0.59050 
C          C       0.50000   0.54364   0.46182 
C          C       0.00000   0.95636   0.96182 
C          C       0.45636   0.00000   0.71182 
C          C       0.04364   0.50000   0.21182 
C          C       0.50000   0.95636   0.78818 
C          C       0.00000   0.54364   0.28818 
C          C       0.54364   0.50000   0.53818 
C          C       0.95636   0.00000   0.03818 
C          C       0.00000   0.04364   0.96182 
C          C       0.50000   0.45636   0.46182 
C          C       0.95636   0.50000   0.21182 
C          C       0.54364   0.00000   0.71182 
C          C       0.00000   0.45636   0.28818 
C          C       0.50000   0.04364   0.78818 
C          C       0.04364   0.00000   0.03818 
C          C       0.45636   0.50000   0.53818 
N          N       0.50000   0.63313   0.28328 
N          N       0.00000   0.86687   0.78328 
N          N       0.36687   0.00000   0.53328 
N          N       0.13313   0.50000   0.03328 
N          N       0.50000   0.86687   0.96672 
N          N       0.00000   0.63313   0.46672 
N          N       0.63313   0.50000   0.71672 
N          N       0.86687   0.00000   0.21672 
N          N       0.00000   0.13313   0.78328 
N          N       0.50000   0.36687   0.28328 
N          N       0.86687   0.50000   0.03328 
N          N       0.63313   0.00000   0.53328 
N          N       0.00000   0.36687   0.46672 
N          N       0.50000   0.13313   0.96672 
N          N       0.13313   0.00000   0.21672 
N          N       0.36687   0.50000   0.71672 
C          C       0.50000   0.64802   0.33269 
C          C       0.00000   0.85198   0.83269 
C          C       0.35198   0.00000   0.58269 
C          C       0.14802   0.50000   0.08269 
C          C       0.50000   0.85198   0.91731 
C          C       0.00000   0.64802   0.41731 
C          C       0.64802   0.50000   0.66731 
C          C       0.85198   0.00000   0.16731 
C          C       0.00000   0.14802   0.83269 
C          C       0.50000   0.35198   0.33269 
C          C       0.85198   0.50000   0.08269 
C          C       0.64802   0.00000   0.58269 
C          C       0.00000   0.35198   0.41731 
C          C       0.50000   0.14802   0.91731 
C          C       0.14802   0.00000   0.16731 
C          C       0.35198   0.50000   0.66731 
C          C       0.50000   0.71871   0.24544 
C          C       0.00000   0.78129   0.74544 
C          C       0.28129   0.00000   0.49544 
C          C       0.21871   0.50000   0.99544 
C          C       0.50000   0.78129   0.00456 
C          C       0.00000   0.71871   0.50456 
C          C       0.71871   0.50000   0.75456 
C          C       0.78129   0.00000   0.25456 
C          C       0.00000   0.21871   0.74544 
C          C       0.50000   0.28129   0.24544 
C          C       0.78129   0.50000   0.99544 
C          C       0.71871   0.00000   0.49544 
C          C       0.00000   0.28129   0.50456 
C          C       0.50000   0.21871   0.00456 
C          C       0.21871   0.00000   0.25456 
C          C       0.28129   0.50000   0.75456 
C          C       0.50000   0.75018   0.20091 
C          C       0.00000   0.74982   0.70091 
C          C       0.24982   0.00000   0.45091 
C          C       0.25018   0.50000   0.95091 
C          C       0.50000   0.74982   0.04909 
C          C       0.00000   0.75018   0.54909 
C          C       0.75018   0.50000   0.79909 
C          C       0.74982   0.00000   0.29909 
C          C       0.00000   0.25018   0.70091 
C          C       0.50000   0.24982   0.20091 
C          C       0.74982   0.50000   0.95091 
C          C       0.75018   0.00000   0.45091 
C          C       0.00000   0.24982   0.54909 
C          C       0.50000   0.25018   0.04909 
C          C       0.25018   0.00000   0.29909 
C          C       0.24982   0.50000   0.79909 
C          C       0.50000   0.73164   0.14820 
C          C       0.00000   0.76836   0.64820 
C          C       0.26836   0.00000   0.39820 
C          C       0.23164   0.50000   0.89820 
C          C       0.50000   0.76836   0.10180 
C          C       0.00000   0.73164   0.60180 
C          C       0.73164   0.50000   0.85180 
C          C       0.76836   0.00000   0.35180 
C          C       0.00000   0.23164   0.64820 
C          C       0.50000   0.26836   0.14820 
C          C       0.76836   0.50000   0.89820 
C          C       0.73164   0.00000   0.39820 
C          C       0.00000   0.26836   0.60180 
C          C       0.50000   0.23164   0.10180 
C          C       0.23164   0.00000   0.35180 
C          C       0.26836   0.50000   0.85180 
C          C       0.50000   0.67834   0.14201 
C          C       0.00000   0.82166   0.64201 
C          C       0.32166   0.00000   0.39201 
C          C       0.17834   0.50000   0.89201 
C          C       0.50000   0.82166   0.10799 
C          C       0.00000   0.67834   0.60799 
C          C       0.67834   0.50000   0.85799 
C          C       0.82166   0.00000   0.35799 
C          C       0.00000   0.17834   0.64201 
C          C       0.50000   0.32166   0.14201 
C          C       0.82166   0.50000   0.89201 
C          C       0.67834   0.00000   0.39201 
C          C       0.00000   0.32166   0.60799 
C          C       0.50000   0.17834   0.10799 
C          C       0.17834   0.00000   0.35799 
C          C       0.32166   0.50000   0.85799 
C          C       0.50000   0.64712   0.18700 
C          C       0.00000   0.85288   0.68700 
C          C       0.35288   0.00000   0.43700 
C          C       0.14712   0.50000   0.93700 
C          C       0.50000   0.85288   0.06300 
C          C       0.00000   0.64712   0.56300 
C          C       0.64712   0.50000   0.81300 
C          C       0.85288   0.00000   0.31300 
C          C       0.00000   0.14712   0.68700 
C          C       0.50000   0.35288   0.18700 
C          C       0.85288   0.50000   0.93700 
C          C       0.64712   0.00000   0.43700 
C          C       0.00000   0.35288   0.56300 
C          C       0.50000   0.14712   0.06300 
C          C       0.14712   0.00000   0.31300 
C          C       0.35288   0.50000   0.81300 
C          C       0.50000   0.66676   0.23863 
C          C       0.00000   0.83324   0.73863 
C          C       0.33324   0.00000   0.48863 
C          C       0.16676   0.50000   0.98863 
C          C       0.50000   0.83324   0.01137 
C          C       0.00000   0.66676   0.51137 
C          C       0.66676   0.50000   0.76137 
C          C       0.83324   0.00000   0.26137 
C          C       0.00000   0.16676   0.73863 
C          C       0.50000   0.33324   0.23863 
C          C       0.83324   0.50000   0.98863 
C          C       0.66676   0.00000   0.48863 
C          C       0.00000   0.33324   0.51137 
C          C       0.50000   0.16676   0.01137 
C          C       0.16676   0.00000   0.26137 
C          C       0.33324   0.50000   0.76137 
O          O       0.50000   0.68178   0.43991 
O          O       0.00000   0.81822   0.93991 
O          O       0.31822   0.00000   0.68991 
O          O       0.18178   0.50000   0.18991 
O          O       0.50000   0.81822   0.81009 
O          O       0.00000   0.68178   0.31009 
O          O       0.68178   0.50000   0.56009 
O          O       0.81822   0.00000   0.06009 
O          O       0.00000   0.18178   0.93991 
O          O       0.50000   0.31822   0.43991 
O          O       0.81822   0.50000   0.18991 
O          O       0.68178   0.00000   0.68991 
O          O       0.00000   0.31822   0.31009 
O          O       0.50000   0.18178   0.81009 
O          O       0.18178   0.00000   0.06009 
O          O       0.31822   0.50000   0.56009 
C          C       0.50000   0.69703   0.49454 
C          C       0.00000   0.80297   0.99454 
C          C       0.30297   0.00000   0.74454 
C          C       0.19703   0.50000   0.24454 
C          C       0.50000   0.80297   0.75546 
C          C       0.00000   0.69703   0.25546 
C          C       0.69703   0.50000   0.50546 
C          C       0.80297   0.00000   0.00546 
C          C       0.00000   0.19703   0.99454 
C          C       0.50000   0.30297   0.49454 
C          C       0.80297   0.50000   0.24454 
C          C       0.69703   0.00000   0.74454 
C          C       0.00000   0.30297   0.25546 
C          C       0.50000   0.19703   0.75546 
C          C       0.19703   0.00000   0.00546 
C          C       0.30297   0.50000   0.50546 
C          C       0.50000   0.65203   0.08933 
C          C       0.00000   0.84797   0.58933 
C          C       0.34797   0.00000   0.33933 
C          C       0.15203   0.50000   0.83933 
C          C       0.50000   0.84797   0.16067 
C          C       0.00000   0.65203   0.66067 
C          C       0.65203   0.50000   0.91067 
C          C       0.84797   0.00000   0.41067 
C          C       0.00000   0.15203   0.58933 
C          C       0.50000   0.34797   0.08933 
C          C       0.84797   0.50000   0.83933 
C          C       0.65203   0.00000   0.33933 
C          C       0.00000   0.34797   0.66067 
C          C       0.50000   0.15203   0.16067 
C          C       0.15203   0.00000   0.41067 
C          C       0.34797   0.50000   0.91067 
H          H       0.52014   0.73452   0.49847 
H          H       0.97986   0.76548   0.99847 
H          H       0.26548   0.02014   0.74847 
H          H       0.23452   0.47986   0.24847 
H          H       0.47986   0.76548   0.75153 
H          H       0.02014   0.73452   0.25153 
H          H       0.73452   0.47986   0.50153 
H          H       0.76548   0.02014   0.00153 
H          H       0.02014   0.23452   0.99847 
H          H       0.47986   0.26548   0.49847 
H          H       0.76548   0.52014   0.24847 
H          H       0.73452   0.97986   0.74847 
H          H       0.97986   0.26548   0.25153 
H          H       0.52014   0.23452   0.75153 
H          H       0.23452   0.97986   0.00153 
H          H       0.26548   0.52014   0.50153 
H          H       0.52014   0.66768   0.51977 
H          H       0.97986   0.83232   0.01977 
H          H       0.33232   0.02014   0.76977 
H          H       0.16768   0.47986   0.26977 
H          H       0.47986   0.83232   0.73023 
H          H       0.02014   0.66768   0.23023 
H          H       0.66768   0.47986   0.48023 
H          H       0.83232   0.02014   0.98023 
H          H       0.02014   0.16768   0.01977 
H          H       0.47986   0.33232   0.51977 
H          H       0.83232   0.52014   0.26977 
H          H       0.66768   0.97986   0.76977 
H          H       0.97986   0.33232   0.23023 
H          H       0.52014   0.16768   0.73023 
H          H       0.16768   0.97986   0.98023 
H          H       0.33232   0.52014   0.48023 
H          H       0.45973   0.70110   0.50912 
H          H       0.04027   0.79890   0.00912 
H          H       0.29890   0.95973   0.75912 
H          H       0.20110   0.54027   0.25912 
H          H       0.54027   0.79890   0.74088 
H          H       0.95973   0.70110   0.24088 
H          H       0.70110   0.54027   0.49088 
H          H       0.79890   0.95973   0.99088 
H          H       0.95973   0.20110   0.00912 
H          H       0.54027   0.29890   0.50912 
H          H       0.79890   0.45973   0.25912 
H          H       0.70110   0.04027   0.75912 
H          H       0.04027   0.29890   0.24088 
H          H       0.45973   0.20110   0.74088 
H          H       0.20110   0.04027   0.99088 
H          H       0.29890   0.45973   0.49088 
H          H       0.52013   0.61456   0.09346 
H          H       0.97987   0.88544   0.59346 
H          H       0.38544   0.02013   0.34346 
H          H       0.11456   0.47987   0.84346 
H          H       0.47987   0.88544   0.15654 
H          H       0.02013   0.61456   0.65654 
H          H       0.61456   0.47987   0.90654 
H          H       0.88544   0.02013   0.40654 
H          H       0.02013   0.11456   0.59346 
H          H       0.47987   0.38544   0.09346 
H          H       0.88544   0.52013   0.84346 
H          H       0.61456   0.97987   0.34346 
H          H       0.97987   0.38544   0.65654 
H          H       0.52013   0.11456   0.15654 
H          H       0.11456   0.97987   0.40654 
H          H       0.38544   0.52013   0.90654 
H          H       0.52013   0.67609   0.05837 
H          H       0.97987   0.82391   0.55837 
H          H       0.32391   0.02013   0.30837 
H          H       0.17609   0.47987   0.80837 
H          H       0.47987   0.82391   0.19163 
H          H       0.02013   0.67609   0.69163 
H          H       0.67609   0.47987   0.94163 
H          H       0.82391   0.02013   0.44163 
H          H       0.02013   0.17609   0.55837 
H          H       0.47987   0.32391   0.05837 
H          H       0.82391   0.52013   0.80837 
H          H       0.67609   0.97987   0.30837 
H          H       0.97987   0.32391   0.69163 
H          H       0.52013   0.17609   0.19163 
H          H       0.17609   0.97987   0.44163 
H          H       0.32391   0.52013   0.94163 
H          H       0.45973   0.64533   0.07591 
H          H       0.04027   0.85467   0.57591 
H          H       0.35467   0.95973   0.32591 
H          H       0.14533   0.54027   0.82591 
H          H       0.54027   0.85467   0.17409 
H          H       0.95973   0.64533   0.67409 
H          H       0.64533   0.54027   0.92409 
H          H       0.85467   0.95973   0.42409 
H          H       0.95973   0.14533   0.57591 
H          H       0.54027   0.35467   0.07591 
H          H       0.85467   0.45973   0.82591 
H          H       0.64533   0.04027   0.32591 
H          H       0.04027   0.35467   0.67409 
H          H       0.45973   0.14533   0.17409 
H          H       0.14533   0.04027   0.42409 
H          H       0.35467   0.45973   0.92409 
H          H       0.50000   0.60845   0.51672 
H          H       0.00000   0.89155   0.01672 
H          H       0.39155   0.00000   0.76672 
H          H       0.10845   0.50000   0.26672 
H          H       0.50000   0.89155   0.73328 
H          H       0.00000   0.60845   0.23328 
H          H       0.60845   0.50000   0.48328 
H          H       0.89155   0.00000   0.98328 
H          H       0.00000   0.10845   0.01672 
H          H       0.50000   0.39155   0.51672 
H          H       0.89155   0.50000   0.26672 
H          H       0.60845   0.00000   0.76672 
H          H       0.00000   0.39155   0.23328 
H          H       0.50000   0.10845   0.73328 
H          H       0.10845   0.00000   0.98328 
H          H       0.39155   0.50000   0.48328 
H          H       0.50000   0.54631   0.32343 
H          H       0.00000   0.95369   0.82343 
H          H       0.45369   0.00000   0.57343 
H          H       0.04631   0.50000   0.07343 
H          H       0.50000   0.95369   0.92657 
H          H       0.00000   0.54631   0.42657 
H          H       0.54631   0.50000   0.67657 
H          H       0.95369   0.00000   0.17657 
H          H       0.00000   0.04631   0.82343 
H          H       0.50000   0.45369   0.32343 
H          H       0.95369   0.50000   0.07343 
H          H       0.54631   0.00000   0.57343 
H          H       0.00000   0.45369   0.42657 
H          H       0.50000   0.04631   0.92657 
H          H       0.04631   0.00000   0.17657 
H          H       0.45369   0.50000   0.67657 
H          H       0.50000   0.68998   0.34121 
H          H       0.00000   0.81002   0.84121 
H          H       0.31002   0.00000   0.59121 
H          H       0.18998   0.50000   0.09121 
H          H       0.50000   0.81002   0.90879 
H          H       0.00000   0.68998   0.40879 
H          H       0.68998   0.50000   0.65879 
H          H       0.81002   0.00000   0.15879 
H          H       0.00000   0.18998   0.84121 
H          H       0.50000   0.31002   0.34121 
H          H       0.81002   0.50000   0.09121 
H          H       0.68998   0.00000   0.59121 
H          H       0.00000   0.31002   0.40879 
H          H       0.50000   0.18998   0.90879 
H          H       0.18998   0.00000   0.15879 
H          H       0.31002   0.50000   0.65879 
H          H       0.50000   0.73537   0.28747 
H          H       0.00000   0.76463   0.78747 
H          H       0.26463   0.00000   0.53747 
H          H       0.23537   0.50000   0.03747 
H          H       0.50000   0.76463   0.96253 
H          H       0.00000   0.73537   0.46253 
H          H       0.73537   0.50000   0.71253 
H          H       0.76463   0.00000   0.21253 
H          H       0.00000   0.23537   0.78747 
H          H       0.50000   0.26463   0.28747 
H          H       0.76463   0.50000   0.03747 
H          H       0.73537   0.00000   0.53747 
H          H       0.00000   0.26463   0.46253 
H          H       0.50000   0.23537   0.96253 
H          H       0.23537   0.00000   0.21253 
H          H       0.26463   0.50000   0.71253 
H          H       0.50000   0.79257   0.20651 
H          H       0.00000   0.70743   0.70651 
H          H       0.20743   0.00000   0.45651 
H          H       0.29257   0.50000   0.95651 
H          H       0.50000   0.70743   0.04349 
H          H       0.00000   0.79257   0.54349 
H          H       0.79257   0.50000   0.79349 
H          H       0.70743   0.00000   0.29349 
H          H       0.00000   0.29257   0.70651 
H          H       0.50000   0.20743   0.20651 
H          H       0.70743   0.50000   0.95651 
H          H       0.79257   0.00000   0.45651 
H          H       0.00000   0.20743   0.54349 
H          H       0.50000   0.29257   0.04349 
H          H       0.29257   0.00000   0.29349 
H          H       0.20743   0.50000   0.79349 
H          H       0.50000   0.60468   0.18179 
H          H       0.00000   0.89532   0.68179 
H          H       0.39532   0.00000   0.43179 
H          H       0.10468   0.50000   0.93179 
H          H       0.50000   0.89532   0.06821 
H          H       0.00000   0.60468   0.56821 
H          H       0.60468   0.50000   0.81821 
H          H       0.89532   0.00000   0.31821 
H          H       0.00000   0.10468   0.68179 
H          H       0.50000   0.39532   0.18179 
H          H       0.89532   0.50000   0.93179 
H          H       0.60468   0.00000   0.43179 
H          H       0.00000   0.39532   0.56821 
H          H       0.50000   0.10468   0.06821 
H          H       0.10468   0.00000   0.31821 
H          H       0.39532   0.50000   0.81821 
C          C       0.50000   0.50000   0.50000 
C          C       0.00000   0.00000   0.00000 
C          C       0.50000   0.00000   0.75000 
C          C       0.00000   0.50000   0.25000 
