data_crystal

_cell_length_a    27.93700
_cell_length_b    27.93700
_cell_length_c    74.80120
_cell_angle_alpha 90.00000
_cell_angle_beta  90.00000
_cell_angle_gamma 90.00000

_space_group_name_Hall 'P 1'
_space_group_name_H-M_alt  'P 1'

loop_
_symmetry_equiv_pos_as_xyz
'x,y,z' 

loop_
_atom_site_label
_atom_site_type_symbol
_atom_site_fract_x
_atom_site_fract_y
_atom_site_fract_z
C          C       0.09697   0.99997   0.99121 
C          C       0.40303   0.50003   0.49121 
C          C       0.00003   0.59697   0.24121 
C          C       0.49997   0.90303   0.74121 
C          C       0.90303   0.50003   0.25879 
C          C       0.59697   0.99997   0.75879 
C          C       0.99997   0.90303   0.00879 
C          C       0.50003   0.59697   0.50879 
C          C       0.59697   0.49997   0.49121 
C          C       0.90303   0.00003   0.99121 
C          C       0.50003   0.09697   0.74121 
C          C       0.99997   0.40303   0.24121 
C          C       0.40303   0.00003   0.75879 
C          C       0.09697   0.49997   0.25879 
C          C       0.49997   0.40303   0.50879 
C          C       0.00003   0.09697   0.00879 
C          C       0.13268   0.99996   0.97711 
C          C       0.36732   0.50004   0.47711 
C          C       0.00004   0.63268   0.22711 
C          C       0.49996   0.86732   0.72711 
C          C       0.86732   0.50004   0.27289 
C          C       0.63268   0.99996   0.77289 
C          C       0.99996   0.86732   0.02289 
C          C       0.50004   0.63268   0.52289 
C          C       0.63268   0.49996   0.47711 
C          C       0.86732   0.00004   0.97711 
C          C       0.50004   0.13268   0.72711 
C          C       0.99996   0.36732   0.22711 
C          C       0.36732   0.00004   0.77289 
C          C       0.13268   0.49996   0.27289 
C          C       0.49996   0.36732   0.52289 
C          C       0.00004   0.13268   0.02289 
C          C       0.11448   0.99995   0.95946 
C          C       0.38552   0.50005   0.45946 
C          C       0.00005   0.61448   0.20946 
C          C       0.49995   0.88552   0.70946 
C          C       0.88552   0.50005   0.29054 
C          C       0.61448   0.99995   0.79054 
C          C       0.99995   0.88552   0.04054 
C          C       0.50005   0.61448   0.54054 
C          C       0.61448   0.49995   0.45946 
C          C       0.88552   0.00005   0.95946 
C          C       0.50005   0.11448   0.70946 
C          C       0.99995   0.38552   0.20946 
C          C       0.38552   0.00005   0.79054 
C          C       0.11448   0.49995   0.29054 
C          C       0.49995   0.38552   0.54054 
C          C       0.00005   0.11448   0.04054 
C          C       0.06147   0.99998   0.95599 
C          C       0.43853   0.50002   0.45599 
C          C       0.00002   0.56147   0.20599 
C          C       0.49998   0.93853   0.70599 
C          C       0.93853   0.50002   0.29401 
C          C       0.56147   0.99998   0.79401 
C          C       0.99998   0.93853   0.04401 
C          C       0.50002   0.56147   0.54401 
C          C       0.56147   0.49998   0.45599 
C          C       0.93853   0.00002   0.95599 
C          C       0.50002   0.06147   0.70599 
C          C       0.99998   0.43853   0.20599 
C          C       0.43853   0.00002   0.79401 
C          C       0.06147   0.49998   0.29401 
C          C       0.49998   0.43853   0.54401 
C          C       0.00002   0.06147   0.04401 
C          C       0.02771   0.99998   0.97016 
C          C       0.47229   0.50002   0.47016 
C          C       0.00002   0.52771   0.22016 
C          C       0.49998   0.97229   0.72016 
C          C       0.97229   0.50002   0.27984 
C          C       0.52771   0.99998   0.77984 
C          C       0.99998   0.97229   0.02984 
C          C       0.50002   0.52771   0.52984 
C          C       0.52771   0.49998   0.47016 
C          C       0.97229   0.00002   0.97016 
C          C       0.50002   0.02771   0.72016 
C          C       0.99998   0.47229   0.22016 
C          C       0.47229   0.00002   0.77984 
C          C       0.02771   0.49998   0.27984 
C          C       0.49998   0.47229   0.52984 
C          C       0.00002   0.02771   0.02984 
C          C       0.04467   0.99999   0.98740 
C          C       0.45533   0.50001   0.48740 
C          C       0.00001   0.54467   0.23740 
C          C       0.49999   0.95533   0.73740 
C          C       0.95533   0.50001   0.26260 
C          C       0.54467   0.99999   0.76260 
C          C       0.99999   0.95533   0.01260 
C          C       0.50001   0.54467   0.51260 
C          C       0.54467   0.49999   0.48740 
C          C       0.95533   0.00001   0.98740 
C          C       0.50001   0.04467   0.73740 
C          C       0.99999   0.45533   0.23740 
C          C       0.45533   0.00001   0.76260 
C          C       0.04467   0.49999   0.26260 
C          C       0.49999   0.45533   0.51260 
C          C       0.00001   0.04467   0.01260 
C          C       0.15102   0.99997   0.94468 
C          C       0.34898   0.50003   0.44468 
C          C       0.00003   0.65102   0.19468 
C          C       0.49997   0.84898   0.69468 
C          C       0.84898   0.50003   0.30532 
C          C       0.65102   0.99997   0.80532 
C          C       0.99997   0.84898   0.05532 
C          C       0.50003   0.65102   0.55532 
C          C       0.65102   0.49997   0.44468 
C          C       0.84898   0.00003   0.94468 
C          C       0.50003   0.15102   0.69468 
C          C       0.99997   0.34898   0.19468 
C          C       0.34898   0.00003   0.80532 
C          C       0.15102   0.49997   0.30532 
C          C       0.49997   0.34898   0.55532 
C          C       0.00003   0.15102   0.05532 
C          C       0.14821   0.99995   0.89666 
C          C       0.35179   0.50005   0.39666 
C          C       0.00005   0.64821   0.14666 
C          C       0.49995   0.85179   0.64666 
C          C       0.85179   0.50005   0.35334 
C          C       0.64821   0.99995   0.85334 
C          C       0.99995   0.85179   0.10334 
C          C       0.50005   0.64821   0.60334 
C          C       0.64821   0.49995   0.39666 
C          C       0.85179   0.00005   0.89666 
C          C       0.50005   0.14821   0.64666 
C          C       0.99995   0.35179   0.14666 
C          C       0.35179   0.00005   0.85334 
C          C       0.14821   0.49995   0.35334 
C          C       0.49995   0.35179   0.60334 
C          C       0.00005   0.14821   0.10334 
C          C       0.18019   0.99997   0.88193 
C          C       0.31981   0.50003   0.38193 
C          C       0.00003   0.68019   0.13193 
C          C       0.49997   0.81981   0.63193 
C          C       0.81981   0.50003   0.36807 
C          C       0.68019   0.99997   0.86807 
C          C       0.99997   0.81981   0.11807 
C          C       0.50003   0.68019   0.61807 
C          C       0.68019   0.49997   0.38193 
C          C       0.81981   0.00003   0.88193 
C          C       0.50003   0.18019   0.63193 
C          C       0.99997   0.31981   0.13193 
C          C       0.31981   0.00003   0.86807 
C          C       0.18019   0.49997   0.36807 
C          C       0.49997   0.31981   0.61807 
C          C       0.00003   0.18019   0.11807 
C          C       0.23393   0.00001   0.88335 
C          C       0.26607   0.49999   0.38335 
C          C       0.99999   0.73393   0.13335 
C          C       0.50001   0.76607   0.63335 
C          C       0.76607   0.49999   0.36665 
C          C       0.73393   0.00001   0.86665 
C          C       0.00001   0.76607   0.11665 
C          C       0.49999   0.73393   0.61665 
C          C       0.73393   0.50001   0.38335 
C          C       0.76607   0.99999   0.88335 
C          C       0.49999   0.23393   0.63335 
C          C       0.00001   0.26607   0.13335 
C          C       0.26607   0.99999   0.86665 
C          C       0.23393   0.50001   0.36665 
C          C       0.50001   0.26607   0.61665 
C          C       0.99999   0.23393   0.11665 
C          C       0.25484   0.99999   0.90082 
C          C       0.24516   0.50001   0.40082 
C          C       0.00001   0.75484   0.15082 
C          C       0.49999   0.74516   0.65082 
C          C       0.74516   0.50001   0.34918 
C          C       0.75484   0.99999   0.84918 
C          C       0.99999   0.74516   0.09918 
C          C       0.50001   0.75484   0.59918 
C          C       0.75484   0.49999   0.40082 
C          C       0.74516   0.00001   0.90082 
C          C       0.50001   0.25484   0.65082 
C          C       0.99999   0.24516   0.15082 
C          C       0.24516   0.00001   0.84918 
C          C       0.25484   0.49999   0.34918 
C          C       0.49999   0.24516   0.59918 
C          C       0.00001   0.25484   0.09918 
C          C       0.22236   0.00001   0.91551 
C          C       0.27764   0.49999   0.41551 
C          C       0.99999   0.72236   0.16551 
C          C       0.50001   0.77764   0.66551 
C          C       0.77764   0.49999   0.33449 
C          C       0.72236   0.00001   0.83449 
C          C       0.00001   0.77764   0.08449 
C          C       0.49999   0.72236   0.58449 
C          C       0.72236   0.50001   0.41551 
C          C       0.77764   0.99999   0.91551 
C          C       0.49999   0.22236   0.66551 
C          C       0.00001   0.27764   0.16551 
C          C       0.27764   0.99999   0.83449 
C          C       0.22236   0.50001   0.33449 
C          C       0.50001   0.27764   0.58449 
C          C       0.99999   0.22236   0.08449 
C          C       0.16906   0.00000   0.91355 
C          C       0.33094   0.50000   0.41355 
C          C       0.00000   0.66906   0.16355 
C          C       0.50000   0.83094   0.66355 
C          C       0.83094   0.50000   0.33645 
C          C       0.66906   0.00000   0.83645 
C          C       0.00000   0.83094   0.08645 
C          C       0.50000   0.66906   0.58645 
C          C       0.66906   0.50000   0.41355 
C          C       0.83094   0.00000   0.91355 
C          C       0.50000   0.16906   0.66355 
C          C       0.00000   0.33094   0.16355 
C          C       0.33094   0.00000   0.83645 
C          C       0.16906   0.50000   0.33645 
C          C       0.50000   0.33094   0.58645 
C          C       0.00000   0.16906   0.08645 
N          N       0.50002   0.63529   0.57156 
N          N       0.99998   0.86471   0.07156 
N          N       0.36471   0.00002   0.82156 
N          N       0.13529   0.49998   0.32156 
N          N       0.49998   0.86471   0.67844 
N          N       0.00002   0.63529   0.17844 
N          N       0.63529   0.49998   0.42844 
N          N       0.86471   0.00002   0.92844 
N          N       0.00002   0.13529   0.07156 
N          N       0.49998   0.36471   0.57156 
N          N       0.86471   0.50002   0.32156 
N          N       0.63529   0.99998   0.82156 
N          N       0.99998   0.36471   0.17844 
N          N       0.50002   0.13529   0.67844 
N          N       0.13529   0.99998   0.92844 
N          N       0.36471   0.50002   0.42844 
O          O       0.50004   0.68597   0.51996 
O          O       0.99996   0.81403   0.01996 
O          O       0.31403   0.00004   0.76996 
O          O       0.18597   0.49996   0.26996 
O          O       0.49996   0.81403   0.73004 
O          O       0.00004   0.68597   0.23004 
O          O       0.68597   0.49996   0.48004 
O          O       0.81403   0.00004   0.98004 
O          O       0.00004   0.18597   0.01996 
O          O       0.49996   0.31403   0.51996 
O          O       0.81403   0.50004   0.26996 
O          O       0.68597   0.99996   0.76996 
O          O       0.99996   0.31403   0.23004 
O          O       0.50004   0.18597   0.73004 
O          O       0.18597   0.99996   0.98004 
O          O       0.31403   0.50004   0.48004 
C          C       0.50001   0.70170   0.50196 
C          C       0.99999   0.79830   0.00196 
C          C       0.29830   0.00001   0.75196 
C          C       0.20170   0.49999   0.25196 
C          C       0.49999   0.79830   0.74804 
C          C       0.00001   0.70170   0.24804 
C          C       0.70170   0.49999   0.49804 
C          C       0.79830   0.00001   0.99804 
C          C       0.00001   0.20170   0.00196 
C          C       0.49999   0.29830   0.50196 
C          C       0.79830   0.50001   0.25196 
C          C       0.70170   0.99999   0.75196 
C          C       0.99999   0.29830   0.24804 
C          C       0.50001   0.20170   0.74804 
C          C       0.20170   0.99999   0.99804 
C          C       0.29830   0.50001   0.49804 
C          C       0.50002   0.81078   0.59513 
C          C       0.99998   0.68922   0.09513 
C          C       0.18922   0.00002   0.84513 
C          C       0.31078   0.49998   0.34513 
C          C       0.49998   0.68922   0.65487 
C          C       0.00002   0.81078   0.15487 
C          C       0.81078   0.49998   0.40487 
C          C       0.68922   0.00002   0.90487 
C          C       0.00002   0.31078   0.09513 
C          C       0.49998   0.18922   0.59513 
C          C       0.68922   0.50002   0.34513 
C          C       0.81078   0.99998   0.84513 
C          C       0.99998   0.18922   0.15487 
C          C       0.50002   0.31078   0.65487 
C          C       0.31078   0.99998   0.90487 
C          C       0.18922   0.50002   0.40487 
H          H       0.23925   0.00003   0.92939 
H          H       0.26075   0.49997   0.42939 
H          H       0.99997   0.73925   0.17939 
H          H       0.50003   0.76075   0.67939 
H          H       0.76075   0.49997   0.32061 
H          H       0.73925   0.00003   0.82061 
H          H       0.00003   0.76075   0.07061 
H          H       0.49997   0.73925   0.57061 
H          H       0.73925   0.50003   0.42939 
H          H       0.76075   0.99997   0.92939 
H          H       0.49997   0.23925   0.67939 
H          H       0.00003   0.26075   0.17939 
H          H       0.26075   0.99997   0.82061 
H          H       0.23925   0.50003   0.32061 
H          H       0.50003   0.26075   0.57061 
H          H       0.99997   0.23925   0.07061 
H          H       0.52056   0.67173   0.49361 
H          H       0.97944   0.82827   0.99361 
H          H       0.32827   0.02056   0.74361 
H          H       0.17173   0.47944   0.24361 
H          H       0.47944   0.82827   0.75639 
H          H       0.02056   0.67173   0.25639 
H          H       0.67173   0.47944   0.50639 
H          H       0.82827   0.02056   0.00639 
H          H       0.02056   0.17173   0.99361 
H          H       0.47944   0.32827   0.49361 
H          H       0.82827   0.52056   0.24361 
H          H       0.67173   0.97944   0.74361 
H          H       0.97944   0.32827   0.25639 
H          H       0.52056   0.17173   0.75639 
H          H       0.17173   0.97944   0.00639 
H          H       0.32827   0.52056   0.50639 
H          H       0.52063   0.74005   0.50069 
H          H       0.97937   0.75995   0.00069 
H          H       0.25995   0.02063   0.75069 
H          H       0.24005   0.47937   0.25069 
H          H       0.47937   0.75995   0.74931 
H          H       0.02063   0.74005   0.24931 
H          H       0.74005   0.47937   0.49931 
H          H       0.75995   0.02063   0.99931 
H          H       0.02063   0.24005   0.00069 
H          H       0.47937   0.25995   0.50069 
H          H       0.75995   0.52063   0.25069 
H          H       0.74005   0.97937   0.75069 
H          H       0.97937   0.25995   0.24931 
H          H       0.52063   0.24005   0.74931 
H          H       0.24005   0.97937   0.99931 
H          H       0.25995   0.52063   0.49931 
H          H       0.45880   0.70594   0.49717 
H          H       0.04120   0.79406   0.99717 
H          H       0.29406   0.95880   0.74717 
H          H       0.20594   0.54120   0.24717 
H          H       0.54120   0.79406   0.75283 
H          H       0.95880   0.70594   0.25283 
H          H       0.70594   0.54120   0.50283 
H          H       0.79406   0.95880   0.00283 
H          H       0.95880   0.20594   0.99717 
H          H       0.54120   0.29406   0.49717 
H          H       0.79406   0.45880   0.24717 
H          H       0.70594   0.04120   0.74717 
H          H       0.04120   0.29406   0.25283 
H          H       0.45880   0.20594   0.75283 
H          H       0.20594   0.04120   0.00283 
H          H       0.29406   0.45880   0.50283 
H          H       0.52061   0.81768   0.58207 
H          H       0.97939   0.68232   0.08207 
H          H       0.18232   0.02061   0.83207 
H          H       0.31768   0.47939   0.33207 
H          H       0.47939   0.68232   0.66793 
H          H       0.02061   0.81768   0.16793 
H          H       0.81768   0.47939   0.41793 
H          H       0.68232   0.02061   0.91793 
H          H       0.02061   0.31768   0.08207 
H          H       0.47939   0.18232   0.58207 
H          H       0.68232   0.52061   0.33207 
H          H       0.81768   0.97939   0.83207 
H          H       0.97939   0.18232   0.16793 
H          H       0.52061   0.31768   0.66793 
H          H       0.31768   0.97939   0.91793 
H          H       0.18232   0.52061   0.41793 
H          H       0.52062   0.83238   0.60612 
H          H       0.97938   0.66762   0.10612 
H          H       0.16762   0.02062   0.85612 
H          H       0.33238   0.47938   0.35612 
H          H       0.47938   0.66762   0.64388 
H          H       0.02062   0.83238   0.14388 
H          H       0.83238   0.47938   0.39388 
H          H       0.66762   0.02062   0.89388 
H          H       0.02062   0.33238   0.10612 
H          H       0.47938   0.16762   0.60612 
H          H       0.66762   0.52062   0.35612 
H          H       0.83238   0.97938   0.85612 
H          H       0.97938   0.16762   0.14388 
H          H       0.52062   0.33238   0.64388 
H          H       0.33238   0.97938   0.89388 
H          H       0.16762   0.52062   0.39388 
H          H       0.45882   0.82504   0.59410 
H          H       0.04118   0.67496   0.09410 
H          H       0.17496   0.95882   0.84410 
H          H       0.32504   0.54118   0.34410 
H          H       0.54118   0.67496   0.65590 
H          H       0.95882   0.82504   0.15590 
H          H       0.82504   0.54118   0.40590 
H          H       0.67496   0.95882   0.90590 
H          H       0.95882   0.32504   0.09410 
H          H       0.54118   0.17496   0.59410 
H          H       0.67496   0.45882   0.34410 
H          H       0.82504   0.04118   0.84410 
H          H       0.04118   0.17496   0.15590 
H          H       0.45882   0.32504   0.65590 
H          H       0.32504   0.04118   0.90590 
H          H       0.17496   0.45882   0.40590 
H          H       0.11112   0.99997   0.00545 
H          H       0.38888   0.50003   0.50545 
H          H       0.00003   0.61112   0.25545 
H          H       0.49997   0.88888   0.75545 
H          H       0.88888   0.50003   0.24455 
H          H       0.61112   0.99997   0.74455 
H          H       0.99997   0.88888   0.99455 
H          H       0.50003   0.61112   0.49455 
H          H       0.61112   0.49997   0.50545 
H          H       0.88888   0.00003   0.00545 
H          H       0.50003   0.11112   0.75545 
H          H       0.99997   0.38888   0.25545 
H          H       0.38888   0.00003   0.74455 
H          H       0.11112   0.49997   0.24455 
H          H       0.49997   0.38888   0.49455 
H          H       0.00003   0.11112   0.99455 
H          H       0.04708   0.99999   0.94178 
H          H       0.45292   0.50001   0.44178 
H          H       0.00001   0.54708   0.19178 
H          H       0.49999   0.95292   0.69178 
H          H       0.95292   0.50001   0.30822 
H          H       0.54708   0.99999   0.80822 
H          H       0.99999   0.95292   0.05822 
H          H       0.50001   0.54708   0.55822 
H          H       0.54708   0.49999   0.44178 
H          H       0.95292   0.00001   0.94178 
H          H       0.50001   0.04708   0.69178 
H          H       0.99999   0.45292   0.19178 
H          H       0.45292   0.00001   0.80822 
H          H       0.04708   0.49999   0.30822 
H          H       0.49999   0.45292   0.55822 
H          H       0.00001   0.04708   0.05822 
H          H       0.19399   0.99997   0.94739 
H          H       0.30601   0.50003   0.44739 
H          H       0.00003   0.69399   0.19739 
H          H       0.49997   0.80601   0.69739 
H          H       0.80601   0.50003   0.30261 
H          H       0.69399   0.99997   0.80261 
H          H       0.99997   0.80601   0.05261 
H          H       0.50003   0.69399   0.55261 
H          H       0.69399   0.49997   0.44739 
H          H       0.80601   0.00003   0.94739 
H          H       0.50003   0.19399   0.69739 
H          H       0.99997   0.30601   0.19739 
H          H       0.30601   0.00003   0.80261 
H          H       0.19399   0.49997   0.30261 
H          H       0.49997   0.30601   0.55261 
H          H       0.00003   0.19399   0.05261 
H          H       0.10482   0.99989   0.89488 
H          H       0.39518   0.50011   0.39488 
H          H       0.00011   0.60482   0.14488 
H          H       0.49989   0.89518   0.64488 
H          H       0.89518   0.50011   0.35512 
H          H       0.60482   0.99989   0.85512 
H          H       0.99989   0.89518   0.10512 
H          H       0.50011   0.60482   0.60512 
H          H       0.60482   0.49989   0.39488 
H          H       0.89518   0.00011   0.89488 
H          H       0.50011   0.10482   0.64488 
H          H       0.99989   0.39518   0.14488 
H          H       0.39518   0.00011   0.85512 
H          H       0.10482   0.49989   0.35512 
H          H       0.49989   0.39518   0.60512 
H          H       0.00011   0.10482   0.10512 
H          H       0.16297   0.99996   0.86810 
H          H       0.33703   0.50004   0.36810 
H          H       0.00004   0.66297   0.11810 
H          H       0.49996   0.83703   0.61810 
H          H       0.83703   0.50004   0.38190 
H          H       0.66297   0.99996   0.88190 
H          H       0.99996   0.83703   0.13190 
H          H       0.50004   0.66297   0.63190 
H          H       0.66297   0.49996   0.36810 
H          H       0.83703   0.00004   0.86810 
H          H       0.50004   0.16297   0.61810 
H          H       0.99996   0.33703   0.11810 
H          H       0.33703   0.00004   0.88190 
H          H       0.16297   0.49996   0.38190 
H          H       0.49996   0.33703   0.63190 
H          H       0.00004   0.16297   0.13190 
C          C       0.00000   0.00000   0.00000 
C          C       0.50000   0.50000   0.50000 
C          C       0.00000   0.50000   0.25000 
C          C       0.50000   0.00000   0.75000 
