data_crystal

_cell_length_a    41.21600
_cell_length_b    4.92700
_cell_length_c    40.23700
_cell_angle_alpha 90.00000
_cell_angle_beta  90.00000
_cell_angle_gamma 89.94300

_space_group_name_Hall 'P 1'
_space_group_name_H-M_alt  'P 1'

loop_
_symmetry_equiv_pos_as_xyz
'x,y,z' 

loop_
_atom_site_label
_atom_site_type_symbol
_atom_site_fract_x
_atom_site_fract_y
_atom_site_fract_z
C          C       0.55130   0.28410   0.34500 
C          C       0.44870   0.28410   0.15500 
C          C       0.05130   0.78410   0.34500 
C          C       0.94870   0.78410   0.15500 
C          C       0.44870   0.71590   0.65500 
C          C       0.55130   0.71590   0.84500 
C          C       0.94870   0.21590   0.65500 
C          C       0.05130   0.21590   0.84500 
C          C       0.94500   0.20390   0.34210 
C          C       0.05500   0.20390   0.15790 
C          C       0.44500   0.70390   0.34210 
C          C       0.55500   0.70390   0.15790 
C          C       0.05500   0.79610   0.65790 
C          C       0.94500   0.79610   0.84210 
C          C       0.55500   0.29610   0.65790 
C          C       0.44500   0.29610   0.84210 
C          C       0.91190   0.27910   0.34150 
C          C       0.08810   0.27910   0.15850 
C          C       0.41190   0.77910   0.34150 
C          C       0.58810   0.77910   0.15850 
C          C       0.08810   0.72090   0.65850 
C          C       0.91190   0.72090   0.84150 
C          C       0.58810   0.22090   0.65850 
C          C       0.41190   0.22090   0.84150 
C          C       0.89650   0.90070   0.37830 
C          C       0.10350   0.90070   0.12170 
C          C       0.39650   0.40070   0.37830 
C          C       0.60350   0.40070   0.12170 
C          C       0.10350   0.09930   0.62170 
C          C       0.89650   0.09930   0.87830 
C          C       0.60350   0.59930   0.62170 
C          C       0.39650   0.59930   0.87830 
C          C       0.56450   0.53710   0.33460 
C          C       0.43550   0.53710   0.16540 
C          C       0.06450   0.03710   0.33460 
C          C       0.93550   0.03710   0.16540 
C          C       0.43550   0.46290   0.66540 
C          C       0.56450   0.46290   0.83460 
C          C       0.93550   0.96290   0.66540 
C          C       0.06450   0.96290   0.83460 
C          C       0.95300   0.97950   0.36180 
C          C       0.04700   0.97950   0.13820 
C          C       0.45300   0.47950   0.36180 
C          C       0.54700   0.47950   0.13820 
C          C       0.04700   0.02050   0.63820 
C          C       0.95300   0.02050   0.86180 
C          C       0.54700   0.52050   0.63820 
C          C       0.45300   0.52050   0.86180 
C          C       0.88800   0.12400   0.35830 
C          C       0.11200   0.12400   0.14170 
C          C       0.38800   0.62400   0.35830 
C          C       0.61200   0.62400   0.14170 
C          C       0.11200   0.87600   0.64170 
C          C       0.88800   0.87600   0.85830 
C          C       0.61200   0.37600   0.64170 
C          C       0.38800   0.37600   0.85830 
N          N       0.62710   0.71440   0.40030 
N          N       0.37290   0.71440   0.09970 
N          N       0.12710   0.21440   0.40030 
N          N       0.87290   0.21440   0.09970 
N          N       0.37290   0.28560   0.59970 
N          N       0.62710   0.28560   0.90030 
N          N       0.87290   0.78560   0.59970 
N          N       0.12710   0.78560   0.90030 
C          C       0.56530   0.18670   0.37510 
C          C       0.43470   0.18670   0.12490 
C          C       0.06530   0.68670   0.37510 
C          C       0.93470   0.68670   0.12490 
C          C       0.43470   0.81330   0.62490 
C          C       0.56530   0.81330   0.87510 
C          C       0.93470   0.31330   0.62490 
C          C       0.06530   0.31330   0.87510 
C          C       0.60350   0.56550   0.38030 
C          C       0.39650   0.56550   0.11970 
C          C       0.10350   0.06550   0.38030 
C          C       0.89650   0.06550   0.11970 
C          C       0.39650   0.43450   0.61970 
C          C       0.60350   0.43450   0.88030 
C          C       0.89650   0.93450   0.61970 
C          C       0.10350   0.93450   0.88030 
C          C       0.58910   0.33130   0.39310 
C          C       0.41090   0.33130   0.10690 
C          C       0.08910   0.83130   0.39310 
C          C       0.91090   0.83130   0.10690 
C          C       0.41090   0.66870   0.60690 
C          C       0.58910   0.66870   0.89310 
C          C       0.91090   0.16870   0.60690 
C          C       0.08910   0.16870   0.89310 
N          N       0.87140   0.73840   0.39470 
N          N       0.12860   0.73840   0.10530 
N          N       0.37140   0.23840   0.39470 
N          N       0.62860   0.23840   0.10530 
N          N       0.12860   0.26160   0.60530 
N          N       0.87140   0.26160   0.89470 
N          N       0.62860   0.76160   0.60530 
N          N       0.37140   0.76160   0.89470 
C          C       0.92970   0.83720   0.38040 
C          C       0.07030   0.83720   0.11960 
C          C       0.42970   0.33720   0.38040 
C          C       0.57030   0.33720   0.11960 
C          C       0.07030   0.16280   0.61960 
C          C       0.92970   0.16280   0.88040 
C          C       0.57030   0.66280   0.61960 
C          C       0.42970   0.66280   0.88040 
C          C       0.59180   0.65820   0.34960 
C          C       0.40820   0.65820   0.15040 
C          C       0.09180   0.15820   0.34960 
C          C       0.90820   0.15820   0.15040 
C          C       0.40820   0.34180   0.65040 
C          C       0.59180   0.34180   0.84960 
C          C       0.90820   0.84180   0.65040 
C          C       0.09180   0.84180   0.84960 
C          C       0.22910   0.92910   0.98040 
C          C       0.77090   0.92910   0.51960 
C          C       0.72910   0.42910   0.98040 
C          C       0.27090   0.42910   0.51960 
C          C       0.77090   0.07090   0.01960 
C          C       0.22910   0.07090   0.48040 
C          C       0.27090   0.57090   0.01960 
C          C       0.72910   0.57090   0.48040 
C          C       0.25440   0.76890   0.96600 
C          C       0.74560   0.76890   0.53400 
C          C       0.75440   0.26890   0.96600 
C          C       0.24560   0.26890   0.53400 
C          C       0.74560   0.23110   0.03400 
C          C       0.25440   0.23110   0.46600 
C          C       0.24560   0.73110   0.03400 
C          C       0.75440   0.73110   0.46600 
C          C       0.27520   0.59410   0.98420 
C          C       0.72480   0.59410   0.51580 
C          C       0.77520   0.09410   0.98420 
C          C       0.22480   0.09410   0.51580 
C          C       0.72480   0.40590   0.01580 
C          C       0.27520   0.40590   0.48420 
C          C       0.22480   0.90590   0.01580 
C          C       0.77520   0.90590   0.48420 
C          C       0.29170   0.39050   0.04240 
C          C       0.70830   0.39050   0.45760 
C          C       0.79170   0.89050   0.04240 
C          C       0.20830   0.89050   0.45760 
C          C       0.70830   0.60950   0.95760 
C          C       0.29170   0.60950   0.54240 
C          C       0.20830   0.10950   0.95760 
C          C       0.79170   0.10950   0.54240 
C          C       0.19840   0.05310   0.03510 
C          C       0.80160   0.05310   0.46490 
C          C       0.69840   0.55310   0.03510 
C          C       0.30160   0.55310   0.46490 
C          C       0.80160   0.94690   0.96490 
C          C       0.19840   0.94690   0.53510 
C          C       0.30160   0.44690   0.96490 
C          C       0.69840   0.44690   0.53510 
C          C       0.20620   0.22100   0.06240 
C          C       0.79380   0.22100   0.43760 
C          C       0.70620   0.72100   0.06240 
C          C       0.29380   0.72100   0.43760 
C          C       0.79380   0.77900   0.93760 
C          C       0.20620   0.77900   0.56240 
C          C       0.29380   0.27900   0.93760 
C          C       0.70620   0.27900   0.56240 
C          C       0.18250   0.38640   0.07780 
C          C       0.81750   0.38640   0.42220 
C          C       0.68250   0.88640   0.07780 
C          C       0.31750   0.88640   0.42220 
C          C       0.81750   0.61360   0.92220 
C          C       0.18250   0.61360   0.57780 
C          C       0.31750   0.11360   0.92220 
C          C       0.68250   0.11360   0.57780 
C          C       0.15010   0.38150   0.06710 
C          C       0.84990   0.38150   0.43290 
C          C       0.65010   0.88150   0.06710 
C          C       0.34990   0.88150   0.43290 
C          C       0.84990   0.61850   0.93290 
C          C       0.15010   0.61850   0.56710 
C          C       0.34990   0.11850   0.93290 
C          C       0.65010   0.11850   0.56710 
C          C       0.14190   0.19660   0.04170 
C          C       0.85810   0.19660   0.45830 
C          C       0.64190   0.69660   0.04170 
C          C       0.35810   0.69660   0.45830 
C          C       0.85810   0.80340   0.95830 
C          C       0.14190   0.80340   0.54170 
C          C       0.35810   0.30340   0.95830 
C          C       0.64190   0.30340   0.54170 
C          C       0.16550   0.03270   0.02630 
C          C       0.83450   0.03270   0.47370 
C          C       0.66550   0.53270   0.02630 
C          C       0.33450   0.53270   0.47370 
C          C       0.83450   0.96730   0.97370 
C          C       0.16550   0.96730   0.52630 
C          C       0.33450   0.46730   0.97370 
C          C       0.66550   0.46730   0.52630 
C          C       0.29590   0.45550   0.07650 
C          C       0.70410   0.45550   0.42350 
C          C       0.79590   0.95550   0.07650 
C          C       0.20410   0.95550   0.42350 
C          C       0.70410   0.54450   0.92350 
C          C       0.29590   0.54450   0.57650 
C          C       0.20410   0.04450   0.92350 
C          C       0.79590   0.04450   0.57650 
C          C       0.31530   0.29710   0.09770 
C          C       0.68470   0.29710   0.40230 
C          C       0.81530   0.79710   0.09770 
C          C       0.18470   0.79710   0.40230 
C          C       0.68470   0.70290   0.90230 
C          C       0.31530   0.70290   0.59770 
C          C       0.18470   0.20290   0.90230 
C          C       0.81530   0.20290   0.59770 
C          C       0.33250   0.07080   0.08600 
C          C       0.66750   0.07080   0.41400 
C          C       0.83250   0.57080   0.08600 
C          C       0.16750   0.57080   0.41400 
C          C       0.66750   0.92920   0.91400 
C          C       0.33250   0.92920   0.58600 
C          C       0.16750   0.42920   0.91400 
C          C       0.83250   0.42920   0.58600 
C          C       0.32870   0.00250   0.05240 
C          C       0.67130   0.00250   0.44760 
C          C       0.82870   0.50250   0.05240 
C          C       0.17130   0.50250   0.44760 
C          C       0.67130   0.99750   0.94760 
C          C       0.32870   0.99750   0.55240 
C          C       0.17130   0.49750   0.94760 
C          C       0.82870   0.49750   0.55240 
C          C       0.30760   0.15140   0.03150 
C          C       0.69240   0.15140   0.46850 
C          C       0.80760   0.65140   0.03150 
C          C       0.19240   0.65140   0.46850 
C          C       0.69240   0.84860   0.96850 
C          C       0.30760   0.84860   0.53150 
C          C       0.19240   0.34860   0.96850 
C          C       0.80760   0.34860   0.53150 
C          C       0.12380   0.55720   0.08180 
C          C       0.87620   0.55720   0.41820 
C          C       0.62380   0.05720   0.08180 
C          C       0.37620   0.05720   0.41820 
C          C       0.87620   0.44280   0.91820 
C          C       0.12380   0.44280   0.58180 
C          C       0.37620   0.94280   0.91820 
C          C       0.62380   0.94280   0.58180 
C          C       0.35400   0.91400   0.10930 
C          C       0.64600   0.91400   0.39070 
C          C       0.85400   0.41400   0.10930 
C          C       0.14600   0.41400   0.39070 
C          C       0.64600   0.08600   0.89070 
C          C       0.35400   0.08600   0.60930 
C          C       0.14600   0.58600   0.89070 
C          C       0.85400   0.58600   0.60930 
C          C       0.47140   0.12070   0.78800 
C          C       0.52860   0.12070   0.71200 
C          C       0.97140   0.62070   0.78800 
C          C       0.02860   0.62070   0.71200 
C          C       0.52860   0.87930   0.21200 
C          C       0.47140   0.87930   0.28800 
C          C       0.02860   0.37930   0.21200 
C          C       0.97140   0.37930   0.28800 
C          C       0.49910   0.01690   0.76970 
C          C       0.50090   0.01690   0.73030 
C          C       0.99910   0.51690   0.76970 
C          C       0.00090   0.51690   0.73030 
C          C       0.50090   0.98310   0.23030 
C          C       0.49910   0.98310   0.26970 
C          C       0.00090   0.48310   0.23030 
C          C       0.99910   0.48310   0.26970 
C          C       0.52250   0.86880   0.78890 
C          C       0.47750   0.86880   0.71110 
C          C       0.02250   0.36880   0.78890 
C          C       0.97750   0.36880   0.71110 
C          C       0.47750   0.13120   0.21110 
C          C       0.52250   0.13120   0.28890 
C          C       0.97750   0.63120   0.21110 
C          C       0.02250   0.63120   0.28890 
C          C       0.47600   0.87290   0.67480 
C          C       0.52400   0.87290   0.82520 
C          C       0.97600   0.37290   0.67480 
C          C       0.02400   0.37290   0.82520 
C          C       0.52400   0.12710   0.32520 
C          C       0.47600   0.12710   0.17480 
C          C       0.02400   0.62710   0.32520 
C          C       0.97600   0.62710   0.17480 
C          C       0.50070   0.03140   0.65820 
C          C       0.49930   0.03140   0.84180 
C          C       0.00070   0.53140   0.65820 
C          C       0.99930   0.53140   0.84180 
C          C       0.49930   0.96860   0.34180 
C          C       0.50070   0.96860   0.15820 
C          C       0.99930   0.46860   0.34180 
C          C       0.00070   0.46860   0.15820 
C          C       0.52780   0.14200   0.67630 
C          C       0.47220   0.14200   0.82370 
C          C       0.02780   0.64200   0.67630 
C          C       0.97220   0.64200   0.82370 
C          C       0.47220   0.85800   0.32370 
C          C       0.52780   0.85800   0.17630 
C          C       0.97220   0.35800   0.32370 
C          C       0.02780   0.35800   0.17630 
C          C       0.43900   0.17210   0.77130 
C          C       0.56100   0.17210   0.72870 
C          C       0.93900   0.67210   0.77130 
C          C       0.06100   0.67210   0.72870 
C          C       0.56100   0.82790   0.22870 
C          C       0.43900   0.82790   0.27130 
C          C       0.06100   0.32790   0.22870 
C          C       0.93900   0.32790   0.27130 
C          C       0.54230   0.66850   0.77020 
C          C       0.45770   0.66850   0.72980 
C          C       0.04230   0.16850   0.77020 
C          C       0.95770   0.16850   0.72980 
C          C       0.45770   0.33150   0.22980 
C          C       0.54230   0.33150   0.27020 
C          C       0.95770   0.83150   0.22980 
C          C       0.04230   0.83150   0.27020 
C          C       0.50010   0.06660   0.62060 
C          C       0.49990   0.06660   0.87940 
C          C       0.00010   0.56660   0.62060 
C          C       0.99990   0.56660   0.87940 
C          C       0.49990   0.93340   0.37940 
C          C       0.50010   0.93340   0.12060 
C          C       0.99990   0.43340   0.37940 
C          C       0.00010   0.43340   0.12060 
H          H       0.90410   0.45980   0.32860 
H          H       0.09590   0.45980   0.17140 
H          H       0.40410   0.95980   0.32860 
H          H       0.59590   0.95980   0.17140 
H          H       0.09590   0.54020   0.67140 
H          H       0.90410   0.54020   0.82860 
H          H       0.59590   0.04020   0.67140 
H          H       0.40410   0.04020   0.82860 
H          H       0.55390   0.65550   0.31540 
H          H       0.44610   0.65550   0.18460 
H          H       0.05390   0.15550   0.31540 
H          H       0.94610   0.15550   0.18460 
H          H       0.44610   0.34450   0.68460 
H          H       0.55390   0.34450   0.81540 
H          H       0.94610   0.84450   0.68460 
H          H       0.05390   0.84450   0.81540 
H          H       0.97810   0.92580   0.36400 
H          H       0.02190   0.92580   0.13600 
H          H       0.47810   0.42580   0.36400 
H          H       0.52190   0.42580   0.13600 
H          H       0.02190   0.07420   0.63600 
H          H       0.97810   0.07420   0.86400 
H          H       0.52190   0.57420   0.63600 
H          H       0.47810   0.57420   0.86400 
H          H       0.86270   0.18320   0.35640 
H          H       0.13730   0.18320   0.14360 
H          H       0.36270   0.68320   0.35640 
H          H       0.63730   0.68320   0.14360 
H          H       0.13730   0.81680   0.64360 
H          H       0.86270   0.81680   0.85640 
H          H       0.63730   0.31680   0.64360 
H          H       0.36270   0.31680   0.85640 
H          H       0.55900   0.99460   0.38560 
H          H       0.44100   0.99460   0.11440 
H          H       0.05900   0.49460   0.38560 
H          H       0.94100   0.49460   0.11440 
H          H       0.44100   0.00540   0.61440 
H          H       0.55900   0.00540   0.88560 
H          H       0.94100   0.50540   0.61440 
H          H       0.05900   0.50540   0.88560 
H          H       0.59710   0.25370   0.41690 
H          H       0.40290   0.25370   0.08310 
H          H       0.09710   0.75370   0.41690 
H          H       0.90290   0.75370   0.08310 
H          H       0.40290   0.74630   0.58310 
H          H       0.59710   0.74630   0.91690 
H          H       0.90290   0.24630   0.58310 
H          H       0.09710   0.24630   0.91690 
H          H       0.93770   0.67460   0.39600 
H          H       0.06230   0.67460   0.10400 
H          H       0.43770   0.17460   0.39600 
H          H       0.56230   0.17460   0.10400 
H          H       0.06230   0.32540   0.60400 
H          H       0.93770   0.32540   0.89600 
H          H       0.56230   0.82540   0.60400 
H          H       0.43770   0.82540   0.89600 
H          H       0.60130   0.84150   0.33850 
H          H       0.39870   0.84150   0.16150 
H          H       0.10130   0.34150   0.33850 
H          H       0.89870   0.34150   0.16150 
H          H       0.39870   0.15850   0.66150 
H          H       0.60130   0.15850   0.83850 
H          H       0.89870   0.65850   0.66150 
H          H       0.10130   0.65850   0.83850 
H          H       0.25900   0.78410   0.93960 
H          H       0.74100   0.78410   0.56040 
H          H       0.75900   0.28410   0.93960 
H          H       0.24100   0.28410   0.56040 
H          H       0.74100   0.21590   0.06040 
H          H       0.25900   0.21590   0.43960 
H          H       0.24100   0.71590   0.06040 
H          H       0.75900   0.71590   0.43960 
H          H       0.23100   0.23100   0.07110 
H          H       0.76900   0.23100   0.42890 
H          H       0.73100   0.73100   0.07110 
H          H       0.26900   0.73100   0.42890 
H          H       0.76900   0.76900   0.92890 
H          H       0.23100   0.76900   0.57110 
H          H       0.26900   0.26900   0.92890 
H          H       0.73100   0.26900   0.57110 
H          H       0.18970   0.51970   0.09790 
H          H       0.81030   0.51970   0.40210 
H          H       0.68970   0.01970   0.09790 
H          H       0.31030   0.01970   0.40210 
H          H       0.81030   0.48030   0.90210 
H          H       0.18970   0.48030   0.59790 
H          H       0.31030   0.98030   0.90210 
H          H       0.68970   0.98030   0.59790 
H          H       0.11700   0.18030   0.03330 
H          H       0.88300   0.18030   0.46670 
H          H       0.61700   0.68030   0.03330 
H          H       0.38300   0.68030   0.46670 
H          H       0.88300   0.81970   0.96670 
H          H       0.11700   0.81970   0.53330 
H          H       0.38300   0.31970   0.96670 
H          H       0.61700   0.31970   0.53330 
H          H       0.15820   0.89700   0.00670 
H          H       0.84180   0.89700   0.49330 
H          H       0.65820   0.39700   0.00670 
H          H       0.34180   0.39700   0.49330 
H          H       0.84180   0.10300   0.99330 
H          H       0.15820   0.10300   0.50670 
H          H       0.34180   0.60300   0.99330 
H          H       0.65820   0.60300   0.50670 
H          H       0.28490   0.63450   0.08710 
H          H       0.71510   0.63450   0.41290 
H          H       0.78490   0.13450   0.08710 
H          H       0.21510   0.13450   0.41290 
H          H       0.71510   0.36550   0.91290 
H          H       0.28490   0.36550   0.58710 
H          H       0.21510   0.86550   0.91290 
H          H       0.78490   0.86550   0.58710 
H          H       0.31760   0.35750   0.12350 
H          H       0.68240   0.35750   0.37650 
H          H       0.81760   0.85750   0.12350 
H          H       0.18240   0.85750   0.37650 
H          H       0.68240   0.64250   0.87650 
H          H       0.31760   0.64250   0.62350 
H          H       0.18240   0.14250   0.87650 
H          H       0.81760   0.14250   0.62350 
H          H       0.34120   0.82790   0.04250 
H          H       0.65880   0.82790   0.45750 
H          H       0.84120   0.32790   0.04250 
H          H       0.15880   0.32790   0.45750 
H          H       0.65880   0.17210   0.95750 
H          H       0.34120   0.17210   0.54250 
H          H       0.15880   0.67210   0.95750 
H          H       0.84120   0.67210   0.54250 
H          H       0.30370   0.07350   0.00690 
H          H       0.69630   0.07350   0.49310 
H          H       0.80370   0.57350   0.00690 
H          H       0.19630   0.57350   0.49310 
H          H       0.69630   0.92650   0.99310 
H          H       0.30370   0.92650   0.50690 
H          H       0.19630   0.42650   0.99310 
H          H       0.80370   0.42650   0.50690 
H          H       0.09980   0.52690   0.07190 
H          H       0.90020   0.52690   0.42810 
H          H       0.59980   0.02690   0.07190 
H          H       0.40020   0.02690   0.42810 
H          H       0.90020   0.47310   0.92810 
H          H       0.09980   0.47310   0.57190 
H          H       0.40020   0.97310   0.92810 
H          H       0.59980   0.97310   0.57190 
H          H       0.35440   0.97820   0.13500 
H          H       0.64560   0.97820   0.36500 
H          H       0.85440   0.47820   0.13500 
H          H       0.14560   0.47820   0.36500 
H          H       0.64560   0.02180   0.86500 
H          H       0.35440   0.02180   0.63500 
H          H       0.14560   0.52180   0.86500 
H          H       0.85440   0.52180   0.63500 
H          H       0.42200   0.00690   0.77800 
H          H       0.57800   0.00690   0.72200 
H          H       0.92200   0.50690   0.77800 
H          H       0.07800   0.50690   0.72200 
H          H       0.57800   0.99310   0.22200 
H          H       0.42200   0.99310   0.27800 
H          H       0.07800   0.49310   0.22200 
H          H       0.92200   0.49310   0.27800 
H          H       0.43930   0.16850   0.74400 
H          H       0.56070   0.16850   0.75600 
H          H       0.93930   0.66850   0.74400 
H          H       0.06070   0.66850   0.75600 
H          H       0.56070   0.83150   0.25600 
H          H       0.43930   0.83150   0.24400 
H          H       0.06070   0.33150   0.25600 
H          H       0.93930   0.33150   0.24400 
H          H       0.42810   0.36700   0.77920 
H          H       0.57190   0.36700   0.72080 
H          H       0.92810   0.86700   0.77920 
H          H       0.07190   0.86700   0.72080 
H          H       0.57190   0.63300   0.22080 
H          H       0.42810   0.63300   0.27920 
H          H       0.07190   0.13300   0.22080 
H          H       0.92810   0.13300   0.27920 
H          H       0.54160   0.68490   0.74310 
H          H       0.45840   0.68490   0.75690 
H          H       0.04160   0.18490   0.74310 
H          H       0.95840   0.18490   0.75690 
H          H       0.45840   0.31510   0.25690 
H          H       0.54160   0.31510   0.24310 
H          H       0.95840   0.81510   0.25690 
H          H       0.04160   0.81510   0.24310 
H          H       0.52970   0.47600   0.77430 
H          H       0.47030   0.47600   0.72570 
H          H       0.02970   0.97600   0.77430 
H          H       0.97030   0.97600   0.72570 
H          H       0.47030   0.52400   0.22570 
H          H       0.52970   0.52400   0.27430 
H          H       0.97030   0.02400   0.22570 
H          H       0.02970   0.02400   0.27430 
H          H       0.56830   0.67620   0.77720 
H          H       0.43170   0.67620   0.72280 
H          H       0.06830   0.17620   0.77720 
H          H       0.93170   0.17620   0.72280 
H          H       0.43170   0.32380   0.22280 
H          H       0.56830   0.32380   0.27720 
H          H       0.93170   0.82380   0.22280 
H          H       0.06830   0.82380   0.27720 
H          H       0.48430   0.24040   0.61400 
H          H       0.51570   0.24040   0.88600 
H          H       0.98430   0.74040   0.61400 
H          H       0.01570   0.74040   0.88600 
H          H       0.51570   0.75960   0.38600 
H          H       0.48430   0.75960   0.11400 
H          H       0.01570   0.25960   0.38600 
H          H       0.98430   0.25960   0.11400 
H          H       0.49290   0.87860   0.60750 
H          H       0.50710   0.87860   0.89250 
H          H       0.99290   0.37860   0.60750 
H          H       0.00710   0.37860   0.89250 
H          H       0.50710   0.12140   0.39250 
H          H       0.49290   0.12140   0.10750 
H          H       0.00710   0.62140   0.39250 
H          H       0.99290   0.62140   0.10750 
H          H       0.52380   0.11290   0.60940 
H          H       0.47620   0.11290   0.89060 
H          H       0.02380   0.61290   0.60940 
H          H       0.97620   0.61290   0.89060 
H          H       0.47620   0.88710   0.39060 
H          H       0.52380   0.88710   0.10940 
H          H       0.97620   0.38710   0.39060 
H          H       0.02380   0.38710   0.10940 
