data_crystal
 
_cell_length_a    18.50000
_cell_length_b    26.33000
_cell_length_c    7.80100
_cell_angle_alpha 90.00000
_cell_angle_beta  90.00000
_cell_angle_gamma 96.08800
 
_symmetry_space_group_name_Hall 'P 1'
_symmetry_space_group_name_H-M  'P 1'
 
loop_
_symmetry_equiv_pos_as_xyz
 'x,y,z' 
 
loop_
_atom_site_label
_atom_site_type_symbol
_atom_site_fract_x
_atom_site_fract_y
_atom_site_fract_z
C          C       0.57730   0.04580   0.94590 
C          C       0.42270   0.04580   0.05410 
C          C       0.07730   0.54580   0.94590 
C          C       0.92270   0.54580   0.05410 
C          C       0.42270   0.95420   0.05410 
C          C       0.57730   0.95420   0.94590 
C          C       0.92270   0.45420   0.05410 
C          C       0.07730   0.45420   0.94590 
C          C       0.35010   0.95260   0.09930 
C          C       0.64990   0.95260   0.90070 
C          C       0.85010   0.45260   0.09930 
C          C       0.14990   0.45260   0.90070 
C          C       0.64990   0.04740   0.90070 
C          C       0.35010   0.04740   0.09930 
C          C       0.14990   0.54740   0.90070 
C          C       0.85010   0.54740   0.09930 
C          C       0.31250   0.09810   0.13270 
C          C       0.68750   0.09810   0.86730 
C          C       0.81250   0.59810   0.13270 
C          C       0.18750   0.59810   0.86730 
C          C       0.68750   0.90190   0.86730 
C          C       0.31250   0.90190   0.13270 
C          C       0.18750   0.40190   0.86730 
C          C       0.81250   0.40190   0.13270 
C          C       0.24850   0.10080   0.21840 
C          C       0.75150   0.10080   0.78160 
C          C       0.74850   0.60080   0.21840 
C          C       0.25150   0.60080   0.78160 
C          C       0.75150   0.89920   0.78160 
C          C       0.24850   0.89920   0.21840 
C          C       0.25150   0.39920   0.78160 
C          C       0.74850   0.39920   0.21840 
C          C       0.24700   0.19420   0.21010 
C          C       0.75300   0.19420   0.78990 
C          C       0.74700   0.69420   0.21010 
C          C       0.25300   0.69420   0.78990 
C          C       0.75300   0.80580   0.78990 
C          C       0.24700   0.80580   0.21010 
C          C       0.25300   0.30580   0.78990 
C          C       0.74700   0.30580   0.21010 
C          C       0.34120   0.14540   0.08500 
C          C       0.65880   0.14540   0.91500 
C          C       0.84120   0.64540   0.08500 
C          C       0.15880   0.64540   0.91500 
C          C       0.65880   0.85460   0.91500 
C          C       0.34120   0.85460   0.08500 
C          C       0.15880   0.35460   0.91500 
C          C       0.84120   0.35460   0.08500 
C          C       0.21600   0.14770   0.25440 
C          C       0.78400   0.14770   0.74560 
C          C       0.71600   0.64770   0.25440 
C          C       0.28400   0.64770   0.74560 
C          C       0.78400   0.85230   0.74560 
C          C       0.21600   0.85230   0.25440 
C          C       0.28400   0.35230   0.74560 
C          C       0.71600   0.35230   0.25440 
N          N       0.21770   0.24370   0.25060 
N          N       0.78230   0.24370   0.74940 
N          N       0.71770   0.74370   0.25060 
N          N       0.28230   0.74370   0.74940 
N          N       0.78230   0.75630   0.74940 
N          N       0.21770   0.75630   0.25060 
N          N       0.28230   0.25630   0.74940 
N          N       0.71770   0.25630   0.25060 
C          C       0.31040   0.19200   0.12720 
C          C       0.68960   0.19200   0.87280 
C          C       0.81040   0.69200   0.12720 
C          C       0.18960   0.69200   0.87280 
C          C       0.68960   0.80800   0.87280 
C          C       0.31040   0.80800   0.12720 
C          C       0.18960   0.30800   0.87280 
C          C       0.81040   0.30800   0.12720 
C          C       0.03120   0.54750   0.45250 
C          C       0.96880   0.54750   0.54750 
C          C       0.53120   0.04750   0.45250 
C          C       0.46880   0.04750   0.54750 
C          C       0.96880   0.45250   0.54750 
C          C       0.03120   0.45250   0.45250 
C          C       0.46880   0.95250   0.54750 
C          C       0.53120   0.95250   0.45250 
C          C       0.93580   0.59650   0.61010 
C          C       0.06420   0.59650   0.38990 
C          C       0.43580   0.09650   0.61010 
C          C       0.56420   0.09650   0.38990 
C          C       0.06420   0.40350   0.38990 
C          C       0.93580   0.40350   0.61010 
C          C       0.56420   0.90350   0.38990 
C          C       0.43580   0.90350   0.61010 
C          C       0.86000   0.60500   0.59480 
C          C       0.14000   0.60500   0.40520 
C          C       0.36000   0.10500   0.59480 
C          C       0.64000   0.10500   0.40520 
C          C       0.14000   0.39500   0.40520 
C          C       0.86000   0.39500   0.59480 
C          C       0.64000   0.89500   0.40520 
C          C       0.36000   0.89500   0.59480 
C          C       0.83090   0.65280   0.63530 
C          C       0.16910   0.65280   0.36470 
C          C       0.33090   0.15280   0.63530 
C          C       0.66910   0.15280   0.36470 
C          C       0.16910   0.34720   0.36470 
C          C       0.83090   0.34720   0.63530 
C          C       0.66910   0.84720   0.36470 
C          C       0.33090   0.84720   0.63530 
C          C       0.87690   0.69360   0.69190 
C          C       0.12310   0.69360   0.30810 
C          C       0.37690   0.19360   0.69190 
C          C       0.62310   0.19360   0.30810 
C          C       0.12310   0.30640   0.30810 
C          C       0.87690   0.30640   0.69190 
C          C       0.62310   0.80640   0.30810 
C          C       0.37690   0.80640   0.69190 
C          C       0.95200   0.68410   0.71590 
C          C       0.04800   0.68410   0.28410 
C          C       0.45200   0.18410   0.71590 
C          C       0.54800   0.18410   0.28410 
C          C       0.04800   0.31590   0.28410 
C          C       0.95200   0.31590   0.71590 
C          C       0.54800   0.81590   0.28410 
C          C       0.45200   0.81590   0.71590 
C          C       0.98060   0.63640   0.67940 
C          C       0.01940   0.63640   0.32060 
C          C       0.48060   0.13640   0.67940 
C          C       0.51940   0.13640   0.32060 
C          C       0.01940   0.36360   0.32060 
C          C       0.98060   0.36360   0.67940 
C          C       0.51940   0.86360   0.32060 
C          C       0.48060   0.86360   0.67940 
C          C       0.84980   0.74620   0.72680 
C          C       0.15020   0.74620   0.27320 
C          C       0.34980   0.24620   0.72680 
C          C       0.65020   0.24620   0.27320 
C          C       0.15020   0.25380   0.27320 
C          C       0.84980   0.25380   0.72680 
C          C       0.65020   0.75380   0.27320 
C          C       0.34980   0.75380   0.72680 
H          H       0.54980   0.08100   0.95570 
H          H       0.45020   0.08100   0.04430 
H          H       0.04980   0.58100   0.95570 
H          H       0.95020   0.58100   0.04430 
H          H       0.45020   0.91900   0.04430 
H          H       0.54980   0.91900   0.95570 
H          H       0.95020   0.41900   0.04430 
H          H       0.04980   0.41900   0.95570 
H          H       0.22390   0.06690   0.26410 
H          H       0.77610   0.06690   0.73590 
H          H       0.72390   0.56690   0.26410 
H          H       0.27610   0.56690   0.73590 
H          H       0.77610   0.93310   0.73590 
H          H       0.22390   0.93310   0.26410 
H          H       0.27610   0.43310   0.73590 
H          H       0.72390   0.43310   0.26410 
H          H       0.38850   0.14750   0.01610 
H          H       0.61150   0.14750   0.98390 
H          H       0.88850   0.64750   0.01610 
H          H       0.11150   0.64750   0.98390 
H          H       0.61150   0.85250   0.98390 
H          H       0.38850   0.85250   0.01610 
H          H       0.11150   0.35250   0.98390 
H          H       0.88850   0.35250   0.01610 
H          H       0.16820   0.14740   0.32300 
H          H       0.83180   0.14740   0.67700 
H          H       0.66820   0.64740   0.32300 
H          H       0.33180   0.64740   0.67700 
H          H       0.83180   0.85260   0.67700 
H          H       0.16820   0.85260   0.32300 
H          H       0.33180   0.35260   0.67700 
H          H       0.66820   0.35260   0.32300 
H          H       0.33600   0.22700   0.09280 
H          H       0.66400   0.22700   0.90720 
H          H       0.83600   0.72700   0.09280 
H          H       0.16400   0.72700   0.90720 
H          H       0.66400   0.77300   0.90720 
H          H       0.33600   0.77300   0.09280 
H          H       0.16400   0.27300   0.90720 
H          H       0.83600   0.27300   0.09280 
H          H       0.82320   0.57520   0.54600 
H          H       0.17680   0.57520   0.45400 
H          H       0.32320   0.07520   0.54600 
H          H       0.67680   0.07520   0.45400 
H          H       0.17680   0.42480   0.45400 
H          H       0.82320   0.42480   0.54600 
H          H       0.67680   0.92480   0.45400 
H          H       0.32320   0.92480   0.54600 
H          H       0.77260   0.65820   0.61870 
H          H       0.22740   0.65820   0.38130 
H          H       0.27260   0.15820   0.61870 
H          H       0.72740   0.15820   0.38130 
H          H       0.22740   0.34180   0.38130 
H          H       0.77260   0.34180   0.61870 
H          H       0.72740   0.84180   0.38130 
H          H       0.27260   0.84180   0.61870 
H          H       0.98930   0.71400   0.76260 
H          H       0.01070   0.71400   0.23740 
H          H       0.48930   0.21400   0.76260 
H          H       0.51070   0.21400   0.23740 
H          H       0.01070   0.28600   0.23740 
H          H       0.98930   0.28600   0.76260 
H          H       0.51070   0.78600   0.23740 
H          H       0.48930   0.78600   0.76260 
H          H       0.03870   0.63140   0.69720 
H          H       0.96130   0.63140   0.30280 
H          H       0.53870   0.13140   0.69720 
H          H       0.46130   0.13140   0.30280 
H          H       0.96130   0.36860   0.30280 
H          H       0.03870   0.36860   0.69720 
H          H       0.46130   0.86860   0.30280 
H          H       0.53870   0.86860   0.69720 
H          H       0.89000   0.77620   0.74430 
H          H       0.11000   0.77620   0.25570 
H          H       0.39000   0.27620   0.74430 
H          H       0.61000   0.27620   0.25570 
H          H       0.11000   0.22380   0.25570 
H          H       0.89000   0.22380   0.74430 
H          H       0.61000   0.72380   0.25570 
H          H       0.39000   0.72380   0.74430 
C          C       0.53940   0.00000   0.97350 
C          C       0.46060   0.00000   0.02650 
C          C       0.03940   0.50000   0.97350 
C          C       0.96060   0.50000   0.02650 
C          C       0.31460   0.00000   0.11530 
C          C       0.68540   0.00000   0.88470 
C          C       0.81460   0.50000   0.11530 
C          C       0.18540   0.50000   0.88470 
C          C       0.56140   0.00000   0.41060 
C          C       0.43860   0.00000   0.58940 
C          C       0.06140   0.50000   0.41060 
C          C       0.93860   0.50000   0.58940 
H          H       0.25830   0.00000   0.13740 
H          H       0.74170   0.00000   0.86260 
H          H       0.75830   0.50000   0.13740 
H          H       0.24170   0.50000   0.86260 
H          H       0.60770   0.00000   0.33640 
H          H       0.39230   0.00000   0.66360 
H          H       0.10770   0.50000   0.33640 
H          H       0.89230   0.50000   0.66360 
