data_crystal

_cell_length_a    37.36300
_cell_length_b    37.36300
_cell_length_c    6.94800
_cell_angle_alpha 90.00000
_cell_angle_beta  90.00000
_cell_angle_gamma 120.00000

_space_group_name_Hall 'P 1'
_space_group_name_H-M_alt  'P 1'

loop_
_symmetry_equiv_pos_as_xyz
'x,y,z' 

loop_
_atom_site_label
_atom_site_type_symbol
_atom_site_fract_x
_atom_site_fract_y
_atom_site_fract_z
N          N       0.45621   0.88700   0.00000 
N          N       0.11300   0.56921   0.00000 
N          N       0.43079   0.54379   0.00000 
N          N       0.54379   0.11300   0.00000 
N          N       0.88700   0.43079   0.00000 
N          N       0.56921   0.45621   0.00000 
C          C       0.43021   0.84408   0.00000 
C          C       0.15592   0.58613   0.00000 
C          C       0.41387   0.56979   0.00000 
C          C       0.56979   0.15592   0.00000 
C          C       0.84408   0.41387   0.00000 
C          C       0.58613   0.43021   0.00000 
C          C       0.38662   0.82371   0.00000 
C          C       0.17629   0.56291   0.00000 
C          C       0.43709   0.61338   0.00000 
C          C       0.61338   0.17629   0.00000 
C          C       0.82371   0.43709   0.00000 
C          C       0.56291   0.38662   0.00000 
C          C       0.36347   0.78081   0.00000 
C          C       0.21919   0.58266   0.00000 
C          C       0.41734   0.63653   0.00000 
C          C       0.63653   0.21919   0.00000 
C          C       0.78081   0.41734   0.00000 
C          C       0.58266   0.36347   0.00000 
C          C       0.38225   0.75610   0.00000 
C          C       0.24390   0.62615   0.00000 
C          C       0.37385   0.61775   0.00000 
C          C       0.61775   0.24390   0.00000 
C          C       0.75610   0.37385   0.00000 
C          C       0.62615   0.38225   0.00000 
C          C       0.42582   0.77679   0.00000 
C          C       0.22321   0.64903   0.00000 
C          C       0.35097   0.57418   0.00000 
C          C       0.57418   0.22321   0.00000 
C          C       0.77679   0.35097   0.00000 
C          C       0.64903   0.42582   0.00000 
C          C       0.44927   0.81967   0.00000 
C          C       0.18033   0.62960   0.00000 
C          C       0.37040   0.55073   0.00000 
C          C       0.55073   0.18033   0.00000 
C          C       0.81967   0.37040   0.00000 
C          C       0.62960   0.44927   0.00000 
C          C       0.37633   0.68616   0.00000 
C          C       0.31384   0.69017   0.00000 
C          C       0.30983   0.62367   0.00000 
C          C       0.62367   0.31384   0.00000 
C          C       0.68616   0.30983   0.00000 
C          C       0.69017   0.37633   0.00000 
C          C       0.35727   0.71046   0.00000 
C          C       0.28954   0.64681   0.00000 
C          C       0.35319   0.64273   0.00000 
C          C       0.64273   0.28954   0.00000 
C          C       0.71046   0.35319   0.00000 
C          C       0.64681   0.35727   0.00000 
C          C       0.47020   0.55793   0.00000 
C          C       0.44207   0.91227   0.00000 
C          C       0.08773   0.52980   0.00000 
C          C       0.52980   0.44207   0.00000 
C          C       0.55793   0.08773   0.00000 
C          C       0.91227   0.47020   0.00000 
C          C       0.48606   0.52922   0.00000 
C          C       0.47078   0.95684   0.00000 
C          C       0.04316   0.51394   0.00000 
C          C       0.51394   0.47078   0.00000 
C          C       0.52922   0.04316   0.00000 
C          C       0.95684   0.48606   0.00000 
C          C       0.45774   0.48634   0.00000 
C          C       0.51366   0.97140   0.00000 
C          C       0.02860   0.54226   0.00000 
C          C       0.54226   0.51366   0.00000 
C          C       0.48634   0.02860   0.00000 
C          C       0.97140   0.45774   0.00000 
C          C       0.47141   0.45792   0.00000 
C          C       0.54208   0.01349   0.00000 
C          C       0.98651   0.52859   0.00000 
C          C       0.52859   0.54208   0.00000 
C          C       0.45792   0.98651   0.00000 
C          C       0.01349   0.47141   0.00000 
H          H       0.37035   0.84137   0.00000 
H          H       0.15863   0.52898   0.00000 
H          H       0.47102   0.62965   0.00000 
H          H       0.62965   0.15863   0.00000 
H          H       0.84137   0.47102   0.00000 
H          H       0.52898   0.37035   0.00000 
H          H       0.32966   0.76640   0.00000 
H          H       0.23360   0.56326   0.00000 
H          H       0.43674   0.67034   0.00000 
H          H       0.67034   0.23360   0.00000 
H          H       0.76640   0.43674   0.00000 
H          H       0.56326   0.32966   0.00000 
H          H       0.44220   0.75925   0.00000 
H          H       0.24075   0.68295   0.00000 
H          H       0.31705   0.55780   0.00000 
H          H       0.55780   0.24075   0.00000 
H          H       0.75925   0.31705   0.00000 
H          H       0.68295   0.44220   0.00000 
H          H       0.48315   0.83492   0.00000 
H          H       0.16508   0.64823   0.00000 
H          H       0.35177   0.51685   0.00000 
H          H       0.51685   0.16508   0.00000 
H          H       0.83492   0.35177   0.00000 
H          H       0.64823   0.48315   0.00000 
H          H       0.41014   0.70149   0.00000 
H          H       0.29851   0.70865   0.00000 
H          H       0.29135   0.58986   0.00000 
H          H       0.58986   0.29851   0.00000 
H          H       0.70149   0.29135   0.00000 
H          H       0.70865   0.41014   0.00000 
H          H       0.49363   0.59163   0.00000 
H          H       0.40837   0.90200   0.00000 
H          H       0.09800   0.50637   0.00000 
H          H       0.50637   0.40837   0.00000 
H          H       0.59163   0.09800   0.00000 
H          H       0.90200   0.49363   0.00000 
H          H       0.42463   0.47627   0.00000 
H          H       0.52373   0.94836   0.00000 
H          H       0.05164   0.57537   0.00000 
H          H       0.57537   0.52373   0.00000 
H          H       0.47627   0.05164   0.00000 
H          H       0.94836   0.42463   0.00000 
Br         Br      0.57026   0.60061   0.00000 
Br         Br      0.39939   0.96965   0.00000 
Br         Br      0.03035   0.42974   0.00000 
Br         Br      0.42974   0.39939   0.00000 
Br         Br      0.60061   0.03035   0.00000 
Br         Br      0.96965   0.57026   0.00000 
N          N       0.45621   0.88700   0.50000 
N          N       0.11300   0.56921   0.50000 
N          N       0.43079   0.54379   0.50000 
N          N       0.54379   0.11300   0.50000 
N          N       0.88700   0.43079   0.50000 
N          N       0.56921   0.45621   0.50000 
C          C       0.43021   0.84408   0.50000 
C          C       0.15592   0.58613   0.50000 
C          C       0.41387   0.56979   0.50000 
C          C       0.56979   0.15592   0.50000 
C          C       0.84408   0.41387   0.50000 
C          C       0.58613   0.43021   0.50000 
C          C       0.38662   0.82371   0.50000 
C          C       0.17629   0.56291   0.50000 
C          C       0.43709   0.61338   0.50000 
C          C       0.61338   0.17629   0.50000 
C          C       0.82371   0.43709   0.50000 
C          C       0.56291   0.38662   0.50000 
C          C       0.36347   0.78081   0.50000 
C          C       0.21919   0.58266   0.50000 
C          C       0.41734   0.63653   0.50000 
C          C       0.63653   0.21919   0.50000 
C          C       0.78081   0.41734   0.50000 
C          C       0.58266   0.36347   0.50000 
C          C       0.38225   0.75610   0.50000 
C          C       0.24390   0.62615   0.50000 
C          C       0.37385   0.61775   0.50000 
C          C       0.61775   0.24390   0.50000 
C          C       0.75610   0.37385   0.50000 
C          C       0.62615   0.38225   0.50000 
C          C       0.42582   0.77679   0.50000 
C          C       0.22321   0.64903   0.50000 
C          C       0.35097   0.57418   0.50000 
C          C       0.57418   0.22321   0.50000 
C          C       0.77679   0.35097   0.50000 
C          C       0.64903   0.42582   0.50000 
C          C       0.44927   0.81967   0.50000 
C          C       0.18033   0.62960   0.50000 
C          C       0.37040   0.55073   0.50000 
C          C       0.55073   0.18033   0.50000 
C          C       0.81967   0.37040   0.50000 
C          C       0.62960   0.44927   0.50000 
C          C       0.37633   0.68616   0.50000 
C          C       0.31384   0.69017   0.50000 
C          C       0.30983   0.62367   0.50000 
C          C       0.62367   0.31384   0.50000 
C          C       0.68616   0.30983   0.50000 
C          C       0.69017   0.37633   0.50000 
C          C       0.35727   0.71046   0.50000 
C          C       0.28954   0.64681   0.50000 
C          C       0.35319   0.64273   0.50000 
C          C       0.64273   0.28954   0.50000 
C          C       0.71046   0.35319   0.50000 
C          C       0.64681   0.35727   0.50000 
C          C       0.47020   0.55793   0.50000 
C          C       0.44207   0.91227   0.50000 
C          C       0.08773   0.52980   0.50000 
C          C       0.52980   0.44207   0.50000 
C          C       0.55793   0.08773   0.50000 
C          C       0.91227   0.47020   0.50000 
C          C       0.48606   0.52922   0.50000 
C          C       0.47078   0.95684   0.50000 
C          C       0.04316   0.51394   0.50000 
C          C       0.51394   0.47078   0.50000 
C          C       0.52922   0.04316   0.50000 
C          C       0.95684   0.48606   0.50000 
C          C       0.45774   0.48634   0.50000 
C          C       0.51366   0.97140   0.50000 
C          C       0.02860   0.54226   0.50000 
C          C       0.54226   0.51366   0.50000 
C          C       0.48634   0.02860   0.50000 
C          C       0.97140   0.45774   0.50000 
C          C       0.47141   0.45792   0.50000 
C          C       0.54208   0.01349   0.50000 
C          C       0.98651   0.52859   0.50000 
C          C       0.52859   0.54208   0.50000 
C          C       0.45792   0.98651   0.50000 
C          C       0.01349   0.47141   0.50000 
H          H       0.37035   0.84137   0.50000 
H          H       0.15863   0.52898   0.50000 
H          H       0.47102   0.62965   0.50000 
H          H       0.62965   0.15863   0.50000 
H          H       0.84137   0.47102   0.50000 
H          H       0.52898   0.37035   0.50000 
H          H       0.32966   0.76640   0.50000 
H          H       0.23360   0.56326   0.50000 
H          H       0.43674   0.67034   0.50000 
H          H       0.67034   0.23360   0.50000 
H          H       0.76640   0.43674   0.50000 
H          H       0.56326   0.32966   0.50000 
H          H       0.44220   0.75925   0.50000 
H          H       0.24075   0.68295   0.50000 
H          H       0.31705   0.55780   0.50000 
H          H       0.55780   0.24075   0.50000 
H          H       0.75925   0.31705   0.50000 
H          H       0.68295   0.44220   0.50000 
H          H       0.48315   0.83492   0.50000 
H          H       0.16508   0.64823   0.50000 
H          H       0.35177   0.51685   0.50000 
H          H       0.51685   0.16508   0.50000 
H          H       0.83492   0.35177   0.50000 
H          H       0.64823   0.48315   0.50000 
H          H       0.41014   0.70149   0.50000 
H          H       0.29851   0.70865   0.50000 
H          H       0.29135   0.58986   0.50000 
H          H       0.58986   0.29851   0.50000 
H          H       0.70149   0.29135   0.50000 
H          H       0.70865   0.41014   0.50000 
H          H       0.49363   0.59163   0.50000 
H          H       0.40837   0.90200   0.50000 
H          H       0.09800   0.50637   0.50000 
H          H       0.50637   0.40837   0.50000 
H          H       0.59163   0.09800   0.50000 
H          H       0.90200   0.49363   0.50000 
H          H       0.42463   0.47627   0.50000 
H          H       0.52373   0.94836   0.50000 
H          H       0.05164   0.57537   0.50000 
H          H       0.57537   0.52373   0.50000 
H          H       0.47627   0.05164   0.50000 
H          H       0.94836   0.42463   0.50000 
Br         Br      0.57026   0.60061   0.50000 
Br         Br      0.39939   0.96965   0.50000 
Br         Br      0.03035   0.42974   0.50000 
Br         Br      0.42974   0.39939   0.50000 
Br         Br      0.60061   0.03035   0.50000 
Br         Br      0.96965   0.57026   0.50000 
