data_crystal

_cell_length_a    26.83500
_cell_length_b    21.73600
_cell_length_c    9.31560
_cell_angle_alpha 90.00000
_cell_angle_beta  118.35400
_cell_angle_gamma 90.00000

_space_group_name_Hall 'P 1'
_space_group_name_H-M_alt  'P 1'

loop_
_symmetry_equiv_pos_as_xyz
'x,y,z' 

loop_
_atom_site_label
_atom_site_type_symbol
_atom_site_fract_x
_atom_site_fract_y
_atom_site_fract_z
C          C       0.37910   0.10366   0.29390 
C          C       0.37933   0.03937   0.29422 
C          C       0.41537   0.00501   0.25579 
C          C       0.45312   0.03823   0.21896 
C          C       0.45912   0.10242   0.24150 
C          C       0.42093   0.13463   0.27420 
C          C       0.41564   0.93628   0.25885 
C          C       0.36995   0.90111   0.24982 
C          C       0.37375   0.83657   0.26495 
C          C       0.42239   0.80689   0.28396 
C          C       0.46724   0.84019   0.28740 
C          C       0.46360   0.90423   0.27907 
C          C       0.33450   0.13875   0.30893 
C          C       0.50727   0.13501   0.23961 
C          C       0.32868   0.79947   0.27315 
C          C       0.51726   0.80805   0.29643 
C          C       0.27130   0.80630   0.16137 
C          C       0.23072   0.77367   0.18082 
C          C       0.24652   0.73257   0.31050 
C          C       0.30398   0.72340   0.41707 
C          C       0.34444   0.75676   0.39932 
C          C       0.53460   0.75123   0.37488 
C          C       0.57990   0.72032   0.37711 
C          C       0.60915   0.74501   0.30020 
C          C       0.59217   0.80207   0.22287 
C          C       0.54709   0.83310   0.22147 
C          C       0.31859   0.19664   0.23544 
C          C       0.27471   0.22888   0.23779 
C          C       0.24498   0.20433   0.31339 
C          C       0.26136   0.14693   0.38928 
C          C       0.30532   0.11471   0.38698 
C          C       0.56121   0.10839   0.31572 
C          C       0.60715   0.13915   0.32221 
C          C       0.60059   0.19776   0.25424 
C          C       0.54696   0.22478   0.18025 
C          C       0.50084   0.19376   0.17256 
C          C       0.19716   0.23813   0.30895 
C          C       0.64949   0.23029   0.26228 
O          O       0.48308   0.00899   0.15543 
O          O       0.32195   0.92963   0.22989 
N          N       0.69666   0.20155   0.30582 
N          N       0.16637   0.21421   0.36710 
N          N       0.15165   0.71720   0.26162 
C          C       0.20401   0.69969   0.33643 
C          C       0.86367   0.59545   0.22844 
C          C       0.86706   0.53201   0.25359 
C          C       0.91480   0.49744   0.28182 
C          C       0.96224   0.53105   0.29774 
C          C       0.95725   0.59319   0.25220 
C          C       0.90761   0.62475   0.21570 
C          C       0.91458   0.42854   0.28913 
C          C       0.87268   0.39331   0.30157 
C          C       0.87600   0.32879   0.31224 
C          C       0.92079   0.29899   0.30613 
C          C       0.96081   0.33194   0.28248 
C          C       0.95647   0.39582   0.27219 
C          C       0.81530   0.63112   0.21985 
C          C       0.00321   0.62569   0.23701 
C          C       0.83155   0.29110   0.32195 
C          C       0.00750   0.29923   0.27238 
C          C       0.80376   0.31064   0.40815 
C          C       0.75904   0.27722   0.40232 
C          C       0.74240   0.22238   0.31400 
C          C       0.77261   0.20013   0.23764 
C          C       0.81600   0.23485   0.23958 
C          C       0.00172   0.23739   0.22556 
C          C       0.04589   0.20548   0.22396 
C          C       0.09706   0.23519   0.26466 
C          C       0.10310   0.29720   0.30957 
C          C       0.05897   0.32844   0.31406 
C          C       0.82163   0.69374   0.25939 
C          C       0.77829   0.72729   0.26122 
C          C       0.72747   0.69847   0.22840 
C          C       0.72016   0.63623   0.18566 
C          C       0.76344   0.60336   0.18088 
C          C       0.05981   0.62185   0.35628 
C          C       0.10151   0.65180   0.33643 
C          C       0.08749   0.68586   0.19487 
C          C       0.03058   0.69157   0.07796 
C          C       0.98912   0.66169   0.09892 
N          N       0.68373   0.73394   0.22984 
O          O       0.01597   0.50457   0.35402 
O          O       0.82610   0.42170   0.30499 
C          C       0.65621   0.71124   0.29992 
C          C       0.77446   0.41488   0.15400 
C          C       0.03990   0.48382   0.02080 
H          H       0.34910   0.01554   0.32137 
H          H       0.42493   0.18453   0.28791 
H          H       0.42444   0.75676   0.29218 
H          H       0.50052   0.92972   0.29272 
H          H       0.25829   0.83659   0.05602 
H          H       0.18585   0.77951   0.09480 
H          H       0.31669   0.69076   0.01760 
H          H       0.38917   0.75079   0.48640 
H          H       0.51258   0.73125   0.43667 
H          H       0.59320   0.67609   0.43979 
H          H       0.61500   0.82153   0.16284 
H          H       0.53386   0.87715   0.15813 
H          H       0.34002   0.21607   0.17138 
H          H       0.26219   0.27353   0.17701 
H          H       0.23844   0.12765   0.44925 
H          H       0.31732   0.06998   0.44723 
H          H       0.56731   0.06349   0.37439 
H          H       0.64927   0.11849   0.38226 
H          H       0.54155   0.27069   0.12706 
H          H       0.45902   0.21510   0.11300 
H          H       0.18782   0.28425   0.24884 
H          H       0.64371   0.27982   0.22614 
H          H       0.50192   0.03909   0.11984 
H          H       0.29673   0.90026   0.24219 
H          H       0.21942   0.66033   0.42375 
H          H       0.83163   0.50889   0.25638 
H          H       0.90435   0.67333   0.18277 
H          H       0.92450   0.24914   0.32102 
H          H       0.98649   0.42138   0.24721 
H          H       0.81697   0.35305   0.47923 
H          H       0.73696   0.29309   0.46827 
H          H       0.76006   0.15694   0.17010 
H          H       0.83769   0.21851   0.17307 
H          H       0.96169   0.21361   0.18959 
H          H       0.04069   0.15724   0.18738 
H          H       0.14331   0.32060   0.34495 
H          H       0.06503   0.37647   0.35323 
H          H       0.86179   0.71666   0.29156 
H          H       0.78427   0.77590   0.29431 
H          H       0.67990   0.61373   0.15464 
H          H       0.75660   0.55487   0.14599 
H          H       0.07137   0.59598   0.46794 
H          H       0.14527   0.64930   0.43346 
H          H       0.01942   0.71877   0.46843 
H          H       0.94489   0.66538   0.00526 
H          H       0.66736   0.66593   0.36414 
H          H       0.76384   0.36602   0.12294 
H          H       0.77796   0.43752   0.05318 
H          H       0.74055   0.43691   0.16934 
H          H       0.08042   0.46165   0.05178 
H          H       0.01201   0.45057   0.03676 
H          H       0.04727   0.52313   0.10312 
C          C       0.37910   0.10366   0.79390 
C          C       0.37933   0.03937   0.79422 
C          C       0.41537   0.00501   0.75579 
C          C       0.45312   0.03823   0.71896 
C          C       0.45912   0.10242   0.74150 
C          C       0.42093   0.13463   0.77419 
C          C       0.41564   0.93628   0.75885 
C          C       0.36995   0.90111   0.74982 
C          C       0.37375   0.83657   0.76496 
C          C       0.42239   0.80689   0.78397 
C          C       0.46724   0.84019   0.78739 
C          C       0.46360   0.90423   0.77906 
C          C       0.33450   0.13875   0.80893 
C          C       0.50727   0.13501   0.73961 
C          C       0.32868   0.79947   0.77315 
C          C       0.51726   0.80805   0.79643 
C          C       0.27130   0.80630   0.66137 
C          C       0.23072   0.77367   0.68081 
C          C       0.24652   0.73257   0.81050 
C          C       0.30398   0.72340   0.91707 
C          C       0.34444   0.75676   0.89932 
C          C       0.53460   0.75123   0.87488 
C          C       0.57990   0.72032   0.87711 
C          C       0.60915   0.74501   0.80021 
C          C       0.59217   0.80207   0.72287 
C          C       0.54709   0.83310   0.72147 
C          C       0.31859   0.19664   0.73544 
C          C       0.27471   0.22888   0.73779 
C          C       0.24498   0.20433   0.81338 
C          C       0.26136   0.14693   0.88928 
C          C       0.30532   0.11471   0.88698 
C          C       0.56121   0.10839   0.81573 
C          C       0.60715   0.13915   0.82221 
C          C       0.60059   0.19776   0.75424 
C          C       0.54696   0.22478   0.68025 
C          C       0.50084   0.19376   0.67256 
C          C       0.19716   0.23813   0.80895 
C          C       0.64949   0.23029   0.76228 
O          O       0.48308   0.00899   0.65543 
O          O       0.32195   0.92963   0.72988 
N          N       0.69666   0.20155   0.80582 
N          N       0.16637   0.21421   0.86710 
N          N       0.15165   0.71720   0.76162 
C          C       0.20401   0.69969   0.83643 
C          C       0.86367   0.59545   0.72844 
C          C       0.86706   0.53201   0.75358 
C          C       0.91480   0.49744   0.78182 
C          C       0.96224   0.53105   0.79775 
C          C       0.95725   0.59319   0.75220 
C          C       0.90761   0.62475   0.71571 
C          C       0.91458   0.42854   0.78913 
C          C       0.87268   0.39331   0.80157 
C          C       0.87600   0.32879   0.81224 
C          C       0.92079   0.29899   0.80613 
C          C       0.96081   0.33194   0.78248 
C          C       0.95647   0.39582   0.77219 
C          C       0.81530   0.63112   0.71986 
C          C       0.00321   0.62569   0.73701 
C          C       0.83155   0.29110   0.82195 
C          C       0.00750   0.29923   0.77238 
C          C       0.80376   0.31064   0.90816 
C          C       0.75904   0.27722   0.90232 
C          C       0.74240   0.22238   0.81400 
C          C       0.77261   0.20013   0.73764 
C          C       0.81600   0.23485   0.73958 
C          C       0.00172   0.23739   0.72556 
C          C       0.04589   0.20548   0.72396 
C          C       0.09706   0.23519   0.76466 
C          C       0.10310   0.29720   0.80957 
C          C       0.05897   0.32844   0.81406 
C          C       0.82163   0.69374   0.75939 
C          C       0.77829   0.72729   0.76122 
C          C       0.72747   0.69847   0.72840 
C          C       0.72016   0.63623   0.68566 
C          C       0.76344   0.60336   0.68088 
C          C       0.05981   0.62185   0.85628 
C          C       0.10151   0.65180   0.83643 
C          C       0.08749   0.68586   0.69487 
C          C       0.03058   0.69157   0.57796 
C          C       0.98912   0.66169   0.59891 
N          N       0.68373   0.73394   0.72984 
O          O       0.01597   0.50457   0.85401 
O          O       0.82610   0.42170   0.80500 
C          C       0.65621   0.71124   0.79992 
C          C       0.77446   0.41488   0.65400 
C          C       0.03990   0.48382   0.52080 
H          H       0.34910   0.01554   0.82137 
H          H       0.42493   0.18453   0.78791 
H          H       0.42444   0.75676   0.79218 
H          H       0.50052   0.92972   0.79272 
H          H       0.25829   0.83659   0.55602 
H          H       0.18585   0.77951   0.59479 
H          H       0.31669   0.69076   0.51760 
H          H       0.38917   0.75079   0.98641 
H          H       0.51258   0.73125   0.93667 
H          H       0.59320   0.67609   0.93980 
H          H       0.61500   0.82153   0.66285 
H          H       0.53386   0.87715   0.65814 
H          H       0.34002   0.21607   0.67138 
H          H       0.26219   0.27353   0.67701 
H          H       0.23844   0.12765   0.94925 
H          H       0.31732   0.06998   0.94723 
H          H       0.56731   0.06349   0.87439 
H          H       0.64927   0.11849   0.88226 
H          H       0.54155   0.27069   0.62706 
H          H       0.45902   0.21510   0.61300 
H          H       0.18782   0.28425   0.74884 
H          H       0.64371   0.27982   0.72613 
H          H       0.50192   0.03909   0.61984 
H          H       0.29673   0.90026   0.74219 
H          H       0.21942   0.66033   0.92375 
H          H       0.83163   0.50889   0.75637 
H          H       0.90435   0.67333   0.68278 
H          H       0.92450   0.24914   0.82102 
H          H       0.98649   0.42138   0.74721 
H          H       0.81697   0.35305   0.97923 
H          H       0.73696   0.29309   0.96827 
H          H       0.76006   0.15694   0.67010 
H          H       0.83769   0.21851   0.67307 
H          H       0.96169   0.21361   0.68959 
H          H       0.04069   0.15724   0.68738 
H          H       0.14331   0.32060   0.84495 
H          H       0.06503   0.37647   0.85323 
H          H       0.86179   0.71666   0.79156 
H          H       0.78427   0.77590   0.79431 
H          H       0.67990   0.61373   0.65464 
H          H       0.75660   0.55487   0.64599 
H          H       0.07137   0.59598   0.96794 
H          H       0.14527   0.64930   0.93346 
H          H       0.01942   0.71877   0.96843 
H          H       0.94489   0.66538   0.50526 
H          H       0.66736   0.66593   0.86414 
H          H       0.76384   0.36602   0.62294 
H          H       0.77796   0.43752   0.55318 
H          H       0.74055   0.43691   0.66934 
H          H       0.08042   0.46165   0.55178 
H          H       0.01201   0.45057   0.53676 
H          H       0.04727   0.52313   0.60312 
