data_crystal
 
_cell_length_a    26.01970
_cell_length_b    22.75600
_cell_length_c    8.87880
_cell_angle_alpha 90.00000
_cell_angle_beta  82.74990
_cell_angle_gamma 90.00000
 
_symmetry_space_group_name_Hall 'P 1'
_symmetry_space_group_name_H-M  'P 1'
 
loop_
_symmetry_equiv_pos_as_xyz
 'x,y,z' 
 
loop_
_atom_site_label
_atom_site_type_symbol
_atom_site_fract_x
_atom_site_fract_y
_atom_site_fract_z
C          C       0.69157   0.90910   0.19432 
C          C       0.69259   0.84774   0.19080 
C          C       0.73162   0.81559   0.24671 
C          C       0.77127   0.84710   0.30530 
C          C       0.77336   0.90883   0.29727 
C          C       0.73282   0.93921   0.24440 
C          C       0.73167   0.75013   0.24677 
C          C       0.68511   0.71775   0.26336 
C          C       0.68579   0.65595   0.26502 
C          C       0.73312   0.62683   0.25350 
C          C       0.77956   0.65787   0.23765 
C          C       0.77823   0.71908   0.23087 
C          C       0.64600   0.94179   0.15438 
C          C       0.81926   0.94117   0.33672 
C          C       0.63755   0.62078   0.27058 
C          C       0.82912   0.62548   0.23376 
O          O       0.80695   0.81749   0.37594 
O          O       0.63900   0.74681   0.27531 
C          C       0.83180   0.57716   0.32947 
C          C       0.87762   0.54684   0.33098 
C          C       0.92192   0.56293   0.23402 
C          C       0.91913   0.61093   0.13714 
C          C       0.87355   0.64217   0.13839 
C          C       0.59406   0.63172   0.37627 
C          C       0.54929   0.59928   0.37385 
C          C       0.54674   0.55540   0.26507 
C          C       0.59064   0.54347   0.16201 
C          C       0.63551   0.57542   0.16554 
C          C       0.86886   0.92050   0.28313 
C          C       0.91219   0.95169   0.30936 
C          C       0.90743   0.00458   0.38993 
C          C       0.85799   0.02495   0.44509 
C          C       0.81448   0.99371   0.41840 
C          C       0.65066   0.99765   0.08894 
C          C       0.60717   0.02973   0.06663 
C          C       0.55760   0.00715   0.11073 
C          C       0.55301   0.95047   0.17170 
C          C       0.59642   0.91825   0.19237 
C          C       0.51124   0.04295   0.10406 
C          C       0.49893   0.52293   0.25529 
C          C       0.95401   0.03891   0.40424 
C          C       0.96978   0.52966   0.23835 
C          C       0.19030   0.40327   0.20356 
C          C       0.19061   0.34187   0.20030 
C          C       0.23123   0.30937   0.24609 
C          C       0.27324   0.34025   0.29329 
C          C       0.27603   0.40188   0.28300 
C          C       0.23387   0.43273   0.24118 
C          C       0.23076   0.24396   0.24757 
C          C       0.18432   0.21222   0.28230 
C          C       0.18463   0.15045   0.28726 
C          C       0.23167   0.12092   0.25811 
C          C       0.27807   0.15132   0.22299 
C          C       0.27682   0.21255   0.21581 
C          C       0.14360   0.43653   0.17505 
C          C       0.32382   0.43347   0.30994 
C          C       0.13609   0.11568   0.31362 
C          C       0.32762   0.11856   0.19948 
O          O       0.31059   0.30995   0.35556 
O          O       0.13862   0.24206   0.30843 
C          C       0.33324   0.06746   0.28313 
C          C       0.37916   0.03656   0.26542 
C          C       0.42132   0.05601   0.16414 
C          C       0.41567   0.10665   0.07816 
C          C       0.36946   0.13741   0.09660 
C          C       0.09613   0.12890   0.42926 
C          C       0.05032   0.09735   0.44500 
C          C       0.04377   0.05118   0.34515 
C          C       0.08488   0.03563   0.23524 
C          C       0.13013   0.06774   0.21907 
C          C       0.37213   0.41078   0.25094 
C          C       0.41723   0.44064   0.26728 
C          C       0.41499   0.49477   0.34231 
C          C       0.36694   0.51698   0.40507 
C          C       0.32195   0.48697   0.38744 
C          C       0.14682   0.49358   0.11632 
C          C       0.10265   0.52563   0.10161 
C          C       0.05374   0.50196   0.14929 
C          C       0.05016   0.44408   0.20261 
C          C       0.09451   0.41207   0.21486 
N          N       0.46646   0.02151   0.15682 
N          N       0.99837   0.01765   0.34684 
N          N       0.45985   0.52748   0.36048 
N          N       0.00960   0.53690   0.13689 
H          H       0.85379   0.06614   0.00875 
H          H       0.68908   0.01633   0.05511 
H          H       0.61145   0.07358   0.01628 
H          H       0.51703   0.08885   0.06053 
H          H       0.94901   0.08344   0.45682 
H          H       0.66193   0.82462   0.14210 
H          H       0.73348   0.98719   0.24343 
H          H       0.73354   0.57886   0.25641 
H          H       0.81480   0.74301   0.21464 
H          H       0.82806   0.84517   0.42538 
H          H       0.61045   0.71905   0.27514 
H          H       0.79762   0.56410   0.40639 
H          H       0.87943   0.50974   0.40830 
H          H       0.95366   0.62364   0.06124 
H          H       0.87198   0.67967   0.06242 
H          H       0.59570   0.66508   0.46402 
H          H       0.51520   0.60793   0.45587 
H          H       0.58914   0.50880   0.07759 
H          H       0.66942   0.56623   0.08345 
H          H       0.87325   0.88041   0.21502 
H          H       0.95090   0.93630   0.26467 
H          H       0.77597   0.01013   0.46157 
H          H       0.51428   0.93280   0.20627 
H          H       0.59206   0.87476   0.24439 
H          H       0.49789   0.49546   0.15176 
H          H       0.96994   0.49817   0.33474 
H          H       0.15817   0.31891   0.16040 
H          H       0.23520   0.48069   0.23897 
H          H       0.23181   0.07298   0.26254 
H          H       0.31304   0.23630   0.18564 
H          H       0.33290   0.33728   0.40169 
H          H       0.10965   0.21455   0.31989 
H          H       0.30125   0.05225   0.36527 
H          H       0.38342   0.99724   0.33305 
H          H       0.44731   0.12175   0.49463 
H          H       0.36541   0.17655   0.02784 
H          H       0.10144   0.16351   0.01123 
H          H       0.01988   0.10813   0.03707 
H          H       0.08009   0.99889   0.15929 
H          H       0.16140   0.05630   0.13013 
H          H       0.37432   0.36959   0.18724 
H          H       0.45442   0.42165   0.22121 
H          H       0.36519   0.55896   0.46489 
H          H       0.28453   0.50494   0.43552 
H          H       0.18473   0.51315   0.08047 
H          H       0.10572   0.57034   0.05689 
H          H       0.01227   0.42395   0.23500 
H          H       0.09103   0.36747   0.26036 
C          C       0.69157   0.90910   0.69432 
C          C       0.69259   0.84774   0.69080 
C          C       0.73162   0.81559   0.74671 
C          C       0.77127   0.84710   0.80530 
C          C       0.77336   0.90883   0.79727 
C          C       0.73282   0.93921   0.74440 
C          C       0.73167   0.75013   0.74677 
C          C       0.68511   0.71775   0.76336 
C          C       0.68579   0.65595   0.76502 
C          C       0.73312   0.62683   0.75350 
C          C       0.77956   0.65787   0.73765 
C          C       0.77823   0.71908   0.73087 
C          C       0.64600   0.94179   0.65438 
C          C       0.81926   0.94117   0.83673 
C          C       0.63755   0.62078   0.77058 
C          C       0.82912   0.62548   0.73376 
O          O       0.80695   0.81749   0.87594 
O          O       0.63900   0.74681   0.77532 
C          C       0.83180   0.57716   0.82947 
C          C       0.87762   0.54684   0.83098 
C          C       0.92192   0.56293   0.73402 
C          C       0.91913   0.61093   0.63714 
C          C       0.87355   0.64217   0.63839 
C          C       0.59406   0.63172   0.87627 
C          C       0.54929   0.59928   0.87386 
C          C       0.54674   0.55540   0.76506 
C          C       0.59064   0.54347   0.66201 
C          C       0.63551   0.57542   0.66555 
C          C       0.86886   0.92050   0.78312 
C          C       0.91219   0.95169   0.80936 
C          C       0.90743   0.00458   0.88993 
C          C       0.85799   0.02495   0.94509 
C          C       0.81448   0.99371   0.91839 
C          C       0.65066   0.99765   0.58894 
C          C       0.60717   0.02973   0.56663 
C          C       0.55760   0.00715   0.61073 
C          C       0.55301   0.95047   0.67170 
C          C       0.59642   0.91825   0.69237 
C          C       0.51124   0.04295   0.60406 
C          C       0.49893   0.52293   0.75530 
C          C       0.95401   0.03891   0.90424 
C          C       0.96978   0.52966   0.73835 
C          C       0.19030   0.40327   0.70357 
C          C       0.19061   0.34187   0.70030 
C          C       0.23123   0.30937   0.74608 
C          C       0.27324   0.34025   0.79329 
C          C       0.27603   0.40188   0.78300 
C          C       0.23387   0.43273   0.74118 
C          C       0.23076   0.24396   0.74758 
C          C       0.18432   0.21222   0.78231 
C          C       0.18463   0.15045   0.78726 
C          C       0.23167   0.12092   0.75811 
C          C       0.27807   0.15132   0.72300 
C          C       0.27682   0.21255   0.71581 
C          C       0.14360   0.43653   0.67505 
C          C       0.32382   0.43347   0.80994 
C          C       0.13609   0.11568   0.81362 
C          C       0.32762   0.11856   0.69949 
O          O       0.31059   0.30995   0.85556 
O          O       0.13862   0.24206   0.80843 
C          C       0.33324   0.06746   0.78312 
C          C       0.37916   0.03656   0.76542 
C          C       0.42132   0.05601   0.66414 
C          C       0.41567   0.10665   0.57816 
C          C       0.36946   0.13741   0.59660 
C          C       0.09613   0.12890   0.92926 
C          C       0.05032   0.09735   0.94500 
C          C       0.04377   0.05118   0.84515 
C          C       0.08488   0.03563   0.73524 
C          C       0.13013   0.06774   0.71907 
C          C       0.37213   0.41078   0.75094 
C          C       0.41723   0.44064   0.76728 
C          C       0.41499   0.49477   0.84231 
C          C       0.36694   0.51698   0.90507 
C          C       0.32195   0.48697   0.88744 
C          C       0.14682   0.49358   0.61632 
C          C       0.10265   0.52563   0.60161 
C          C       0.05374   0.50196   0.64929 
C          C       0.05016   0.44408   0.70261 
C          C       0.09451   0.41207   0.71486 
N          N       0.46646   0.02151   0.65682 
N          N       0.99837   0.01765   0.84684 
N          N       0.45985   0.52748   0.86048 
N          N       0.00960   0.53690   0.63689 
H          H       0.85379   0.06614   0.50875 
H          H       0.68908   0.01633   0.55511 
H          H       0.61145   0.07358   0.51628 
H          H       0.51703   0.08885   0.56053 
H          H       0.94901   0.08344   0.95682 
H          H       0.66193   0.82462   0.64210 
H          H       0.73348   0.98719   0.74343 
H          H       0.73354   0.57886   0.75641 
H          H       0.81480   0.74301   0.71464 
H          H       0.82806   0.84517   0.92538 
H          H       0.61045   0.71905   0.77514 
H          H       0.79762   0.56410   0.90639 
H          H       0.87943   0.50974   0.90831 
H          H       0.95366   0.62364   0.56124 
H          H       0.87198   0.67967   0.56241 
H          H       0.59570   0.66508   0.96402 
H          H       0.51520   0.60793   0.95587 
H          H       0.58914   0.50880   0.57759 
H          H       0.66942   0.56623   0.58345 
H          H       0.87325   0.88041   0.71502 
H          H       0.95090   0.93630   0.76467 
H          H       0.77597   0.01013   0.96157 
H          H       0.51428   0.93280   0.70627 
H          H       0.59206   0.87476   0.74439 
H          H       0.49789   0.49546   0.65176 
H          H       0.96994   0.49817   0.83474 
H          H       0.15817   0.31891   0.66041 
H          H       0.23520   0.48069   0.73896 
H          H       0.23181   0.07298   0.76255 
H          H       0.31304   0.23630   0.68564 
H          H       0.33290   0.33728   0.90169 
H          H       0.10965   0.21455   0.81989 
H          H       0.30125   0.05225   0.86527 
H          H       0.38342   0.99724   0.83305 
H          H       0.44731   0.12175   0.99463 
H          H       0.36541   0.17655   0.52784 
H          H       0.10144   0.16351   0.51123 
H          H       0.01988   0.10813   0.53707 
H          H       0.08009   0.99889   0.65929 
H          H       0.16140   0.05630   0.63013 
H          H       0.37432   0.36959   0.68724 
H          H       0.45442   0.42165   0.72120 
H          H       0.36519   0.55896   0.96489 
H          H       0.28453   0.50494   0.93552 
H          H       0.18473   0.51315   0.58047 
H          H       0.10572   0.57034   0.55689 
H          H       0.01227   0.42395   0.73500 
H          H       0.09103   0.36747   0.76036 
