data_crystal

_cell_length_a    26.35490
_cell_length_b    22.23760
_cell_length_c    10.10540
_cell_angle_alpha 90.00000
_cell_angle_beta  64.51910
_cell_angle_gamma 90.00000

_space_group_name_Hall 'P 1'
_space_group_name_H-M_alt  'P 1'

loop_
_symmetry_equiv_pos_as_xyz
'x,y,z' 

loop_
_atom_site_label
_atom_site_type_symbol
_atom_site_fract_x
_atom_site_fract_y
_atom_site_fract_z
C          C       0.43420   0.08428   0.07948 
C          C       0.43466   0.14701   0.07902 
C          C       0.48441   0.17680   0.05370 
C          C       0.53431   0.14504   0.01464 
C          C       0.53393   0.08228   0.49956 
C          C       0.48298   0.05043   0.04220 
C          C       0.38338   0.18116   0.10150 
C          C       0.58554   0.17820   0.49858 
C          C       0.34626   0.15800   0.04853 
C          C       0.30010   0.19066   0.05995 
C          C       0.28930   0.24751   0.12553 
C          C       0.32587   0.27033   0.18048 
C          C       0.37230   0.23774   0.16829 
C          C       0.57945   0.22445   0.09830 
C          C       0.62574   0.25512   0.09323 
C          C       0.67962   0.23969   0.48962 
C          C       0.68577   0.19431   0.38803 
C          C       0.63932   0.16428   0.39166 
C          C       0.24115   0.28263   0.13323 
C          C       0.72833   0.27075   0.49103 
C          C       0.52206   0.95315   0.07898 
C          C       0.52477   0.89065   0.08156 
C          C       0.48563   0.85712   0.05429 
C          C       0.44268   0.88489   0.03160 
C          C       0.43954   0.94813   0.03542 
C          C       0.48113   0.98324   0.05097 
C          C       0.56991   0.85971   0.10531 
C          C       0.40177   0.84679   0.00487 
C          C       0.62333   0.88533   0.05678 
C          C       0.66631   0.85467   0.07062 
C          C       0.65720   0.79742   0.13406 
C          C       0.60343   0.77247   0.18613 
C          C       0.56049   0.80311   0.17190 
C          C       0.38759   0.79005   0.07025 
C          C       0.34745   0.75520   0.05306 
C          C       0.31950   0.77670   0.47239 
C          C       0.33527   0.83224   0.40179 
C          C       0.37641   0.86634   0.41573 
C          C       0.70356   0.76289   0.13893 
C          C       0.27212   0.74334   0.46901 
O          O       0.39510   0.97658   0.01913 
O          O       0.58584   0.05289   0.44930 
C          C       0.34132   0.96753   0.14295 
C          C       0.60205   0.02298   0.30972 
N          N       0.20699   0.25970   0.08562 
N          N       0.77830   0.24871   0.42495 
N          N       0.75340   0.78604   0.08925 
C          C       0.02719   0.45320   0.04273 
C          C       0.03017   0.39065   0.03904 
C          C       0.99076   0.35850   0.00972 
C          C       0.94748   0.38744   0.49098 
C          C       0.94469   0.45061   0.49872 
C          C       0.98634   0.48452   0.01692 
C          C       0.07553   0.35847   0.05923 
C          C       0.90564   0.35044   0.46522 
C          C       0.12777   0.38543   0.02201 
C          C       0.17084   0.35441   0.03519 
C          C       0.16278   0.29488   0.08459 
C          C       0.11070   0.26752   0.12162 
C          C       0.06763   0.29927   0.11111 
C          C       0.89052   0.29397   0.03155 
C          C       0.84980   0.25968   0.01545 
C          C       0.82210   0.28243   0.43555 
C          C       0.83837   0.33756   0.36366 
C          C       0.88033   0.37072   0.37679 
C          C       0.94037   0.58654   0.05095 
C          C       0.94265   0.64909   0.04234 
C          C       0.99360   0.67796   0.00792 
C          C       0.04278   0.64520   0.47161 
C          C       0.04057   0.58235   0.46241 
C          C       0.98886   0.55173   0.01009 
C          C       0.89226   0.68487   0.06359 
C          C       0.09462   0.67764   0.45345 
C          C       0.83875   0.67090   0.17160 
C          C       0.79228   0.70366   0.18431 
C          C       0.79831   0.75093   0.08683 
C          C       0.85208   0.76599   0.48102 
C          C       0.89823   0.73329   0.46962 
C          C       0.08910   0.72572   0.04817 
C          C       0.13555   0.75664   0.04131 
C          C       0.18913   0.73850   0.44168 
C          C       0.19527   0.69109   0.34545 
C          C       0.14833   0.66143   0.35043 
N          N       0.23617   0.77102   0.43573 
O          O       0.09186   0.55124   0.41088 
O          O       0.90062   0.48042   0.48300 
C          C       0.10664   0.52273   0.27041 
C          C       0.84692   0.47166   0.10638 
H          H       0.39412   0.06158   0.11163 
H          H       0.48499   0.22585   0.05825 
H          H       0.35469   0.11418   0.49429 
H          H       0.27161   0.17287   0.01657 
H          H       0.31759   0.31446   0.23339 
H          H       0.40025   0.25629   0.21248 
H          H       0.53774   0.23562   0.18321 
H          H       0.62049   0.29063   0.17312 
H          H       0.72786   0.18284   0.30556 
H          H       0.64500   0.12977   0.30962 
H          H       0.23555   0.32872   0.18153 
H          H       0.71957   0.31312   0.05673 
H          H       0.55258   0.97947   0.10089 
H          H       0.48943   0.80823   0.04736 
H          H       0.63162   0.92931   0.00330 
H          H       0.70836   0.87417   0.02942 
H          H       0.59555   0.72804   0.23754 
H          H       0.51876   0.78283   0.21336 
H          H       0.40714   0.77351   0.13927 
H          H       0.33585   0.71153   0.10769 
H          H       0.31387   0.84862   0.33693 
H          H       0.38843   0.90950   0.35918 
H          H       0.69402   0.71577   0.18083 
H          H       0.26704   0.69529   0.00472 
H          H       0.33045   0.91949   0.16159 
H          H       0.30971   0.99083   0.11869 
H          H       0.34146   0.98657   0.24398 
H          H       0.60649   0.05579   0.22337 
H          H       0.57109   0.98866   0.31528 
H          H       0.64266   0.00133   0.28213 
H          H       0.05755   0.47861   0.06711 
H          H       0.99434   0.30971   0.49841 
H          H       0.13527   0.43131   0.47914 
H          H       0.21182   0.37573   0.00243 
H          H       0.10406   0.22126   0.16157 
H          H       0.02693   0.27753   0.14307 
H          H       0.91012   0.27696   0.10001 
H          H       0.83749   0.21627   0.07056 
H          H       0.81778   0.35429   0.29722 
H          H       0.89310   0.41363   0.31937 
H          H       0.89963   0.56488   0.08677 
H          H       0.99512   0.72701   0.00833 
H          H       0.83361   0.63419   0.24844 
H          H       0.75102   0.69285   0.27185 
H          H       0.85699   0.80282   0.40484 
H          H       0.93983   0.74453   0.38419 
H          H       0.04740   0.73855   0.13056 
H          H       0.13077   0.79354   0.11713 
H          H       0.23725   0.67796   0.26511 
H          H       0.15382   0.62533   0.27228 
H          H       0.11129   0.55649   0.18573 
H          H       0.07475   0.48961   0.27593 
H          H       0.14690   0.49979   0.23994 
H          H       0.83508   0.42376   0.12280 
H          H       0.81558   0.49646   0.08374 
H          H       0.84735   0.48916   0.20852 
C          C       0.43420   0.08428   0.57948 
C          C       0.43466   0.14701   0.57902 
C          C       0.48441   0.17680   0.55370 
C          C       0.53431   0.14504   0.51464 
C          C       0.53393   0.08228   0.99956 
C          C       0.48298   0.05043   0.54220 
C          C       0.38338   0.18116   0.60150 
C          C       0.58554   0.17820   0.99858 
C          C       0.34626   0.15800   0.54853 
C          C       0.30010   0.19066   0.55995 
C          C       0.28930   0.24751   0.62553 
C          C       0.32587   0.27033   0.68048 
C          C       0.37230   0.23774   0.66829 
C          C       0.57945   0.22445   0.59830 
C          C       0.62574   0.25512   0.59323 
C          C       0.67962   0.23969   0.98962 
C          C       0.68577   0.19431   0.88803 
C          C       0.63932   0.16428   0.89166 
C          C       0.24115   0.28263   0.63322 
C          C       0.72833   0.27075   0.99103 
C          C       0.52206   0.95315   0.57898 
C          C       0.52477   0.89065   0.58156 
C          C       0.48563   0.85712   0.55429 
C          C       0.44268   0.88489   0.53160 
C          C       0.43954   0.94813   0.53542 
C          C       0.48113   0.98324   0.55097 
C          C       0.56991   0.85971   0.60531 
C          C       0.40177   0.84679   0.50487 
C          C       0.62333   0.88533   0.55678 
C          C       0.66631   0.85467   0.57062 
C          C       0.65720   0.79742   0.63406 
C          C       0.60343   0.77247   0.68613 
C          C       0.56049   0.80311   0.67190 
C          C       0.38759   0.79005   0.57025 
C          C       0.34745   0.75520   0.55306 
C          C       0.31950   0.77670   0.97239 
C          C       0.33527   0.83224   0.90179 
C          C       0.37641   0.86634   0.91573 
C          C       0.70356   0.76289   0.63893 
C          C       0.27212   0.74334   0.96901 
O          O       0.39510   0.97658   0.51913 
O          O       0.58584   0.05289   0.94930 
C          C       0.34132   0.96753   0.64295 
C          C       0.60205   0.02298   0.80972 
N          N       0.20699   0.25970   0.58562 
N          N       0.77830   0.24871   0.92495 
N          N       0.75340   0.78604   0.58925 
C          C       0.02719   0.45320   0.54273 
C          C       0.03017   0.39065   0.53904 
C          C       0.99076   0.35850   0.50972 
C          C       0.94748   0.38744   0.99098 
C          C       0.94469   0.45061   0.99872 
C          C       0.98634   0.48452   0.51692 
C          C       0.07553   0.35847   0.55923 
C          C       0.90564   0.35044   0.96522 
C          C       0.12777   0.38543   0.52201 
C          C       0.17084   0.35441   0.53519 
C          C       0.16278   0.29488   0.58459 
C          C       0.11070   0.26752   0.62162 
C          C       0.06763   0.29927   0.61111 
C          C       0.89052   0.29397   0.53155 
C          C       0.84980   0.25968   0.51545 
C          C       0.82210   0.28243   0.93555 
C          C       0.83837   0.33756   0.86366 
C          C       0.88033   0.37072   0.87679 
C          C       0.94037   0.58654   0.55095 
C          C       0.94265   0.64909   0.54234 
C          C       0.99360   0.67796   0.50792 
C          C       0.04278   0.64520   0.97161 
C          C       0.04057   0.58235   0.96241 
C          C       0.98886   0.55173   0.51008 
C          C       0.89226   0.68487   0.56359 
C          C       0.09462   0.67764   0.95345 
C          C       0.83875   0.67090   0.67161 
C          C       0.79228   0.70366   0.68431 
C          C       0.79831   0.75093   0.58683 
C          C       0.85208   0.76599   0.98102 
C          C       0.89823   0.73329   0.96962 
C          C       0.08910   0.72572   0.54817 
C          C       0.13555   0.75664   0.54131 
C          C       0.18913   0.73850   0.94168 
C          C       0.19527   0.69109   0.84545 
C          C       0.14833   0.66143   0.85043 
N          N       0.23617   0.77102   0.93573 
O          O       0.09186   0.55124   0.91088 
O          O       0.90062   0.48042   0.98300 
C          C       0.10664   0.52273   0.77040 
C          C       0.84692   0.47166   0.60638 
H          H       0.39412   0.06158   0.61163 
H          H       0.48499   0.22585   0.55825 
H          H       0.35469   0.11418   0.99429 
H          H       0.27161   0.17287   0.51657 
H          H       0.31759   0.31446   0.73339 
H          H       0.40025   0.25629   0.71248 
H          H       0.53774   0.23562   0.68321 
H          H       0.62049   0.29063   0.67312 
H          H       0.72786   0.18284   0.80556 
H          H       0.64500   0.12977   0.80962 
H          H       0.23555   0.32872   0.68153 
H          H       0.71957   0.31312   0.55673 
H          H       0.55258   0.97947   0.60089 
H          H       0.48943   0.80823   0.54736 
H          H       0.63162   0.92931   0.50330 
H          H       0.70836   0.87417   0.52942 
H          H       0.59555   0.72804   0.73754 
H          H       0.51876   0.78283   0.71337 
H          H       0.40714   0.77351   0.63927 
H          H       0.33585   0.71153   0.60769 
H          H       0.31387   0.84862   0.83693 
H          H       0.38843   0.90950   0.85918 
H          H       0.69402   0.71577   0.68083 
H          H       0.26704   0.69529   0.50472 
H          H       0.33045   0.91949   0.66159 
H          H       0.30971   0.99083   0.61868 
H          H       0.34146   0.98657   0.74398 
H          H       0.60649   0.05579   0.72337 
H          H       0.57109   0.98866   0.81528 
H          H       0.64266   0.00133   0.78213 
H          H       0.05755   0.47861   0.56711 
H          H       0.99434   0.30971   0.99841 
H          H       0.13527   0.43131   0.97914 
H          H       0.21182   0.37573   0.50243 
H          H       0.10406   0.22126   0.66157 
H          H       0.02693   0.27753   0.64307 
H          H       0.91012   0.27696   0.60001 
H          H       0.83749   0.21627   0.57056 
H          H       0.81778   0.35429   0.79722 
H          H       0.89310   0.41363   0.81937 
H          H       0.89963   0.56488   0.58677 
H          H       0.99512   0.72701   0.50833 
H          H       0.83361   0.63419   0.74844 
H          H       0.75102   0.69285   0.77185 
H          H       0.85699   0.80282   0.90484 
H          H       0.93983   0.74453   0.88420 
H          H       0.04740   0.73855   0.63056 
H          H       0.13077   0.79354   0.61713 
H          H       0.23725   0.67796   0.76511 
H          H       0.15382   0.62533   0.77228 
H          H       0.11129   0.55649   0.68573 
H          H       0.07475   0.48961   0.77593 
H          H       0.14690   0.49979   0.73994 
H          H       0.83508   0.42376   0.62280 
H          H       0.81558   0.49646   0.58374 
H          H       0.84735   0.48916   0.70852 
