data_crystal

_cell_length_a    37.09950
_cell_length_b    37.09950
_cell_length_c    7.56000
_cell_angle_alpha 90.00000
_cell_angle_beta  90.00000
_cell_angle_gamma 120.00000

_space_group_name_Hall 'P 1'
_space_group_name_H-M_alt  'P 1'

loop_
_symmetry_equiv_pos_as_xyz
'x,y,z' 

loop_
_atom_site_label
_atom_site_type_symbol
_atom_site_fract_x
_atom_site_fract_y
_atom_site_fract_z
H          H       0.91354   0.28007   0.38617 
H          H       0.71993   0.63347   0.38617 
H          H       0.36653   0.08646   0.38617 
H          H       0.08646   0.71993   0.38617 
H          H       0.28007   0.36653   0.38617 
H          H       0.63347   0.91354   0.38617 
H          H       0.08646   0.71993   0.11383 
H          H       0.28007   0.36653   0.11383 
H          H       0.63347   0.91354   0.11383 
H          H       0.91354   0.28007   0.11383 
H          H       0.71993   0.63347   0.11383 
H          H       0.36653   0.08646   0.11383 
C          C       0.75697   0.36291   0.00000 
C          C       0.63709   0.39406   0.00000 
C          C       0.60594   0.24303   0.00000 
C          C       0.24303   0.63709   0.00000 
C          C       0.36291   0.60594   0.00000 
C          C       0.39406   0.75697   0.00000 
C          C       0.77260   0.33510   0.00000 
C          C       0.66490   0.43750   0.00000 
C          C       0.56250   0.22740   0.00000 
C          C       0.22740   0.66490   0.00000 
C          C       0.33510   0.56250   0.00000 
C          C       0.43750   0.77260   0.00000 
C          C       0.81529   0.34907   0.00000 
C          C       0.65093   0.46622   0.00000 
C          C       0.53378   0.18471   0.00000 
C          C       0.18471   0.65093   0.00000 
C          C       0.34907   0.53378   0.00000 
C          C       0.46622   0.81529   0.00000 
C          C       0.84530   0.39167   0.00000 
C          C       0.60833   0.45363   0.00000 
C          C       0.54637   0.15470   0.00000 
C          C       0.15470   0.60833   0.00000 
C          C       0.39167   0.54637   0.00000 
C          C       0.45363   0.84530   0.00000 
C          C       0.82966   0.41946   0.00000 
C          C       0.58054   0.41020   0.00000 
C          C       0.58980   0.17034   0.00000 
C          C       0.17034   0.58054   0.00000 
C          C       0.41946   0.58980   0.00000 
C          C       0.41020   0.82966   0.00000 
C          C       0.78711   0.40569   0.00000 
C          C       0.59431   0.38142   0.00000 
C          C       0.61858   0.21289   0.00000 
C          C       0.21289   0.59431   0.00000 
C          C       0.40569   0.61858   0.00000 
C          C       0.38142   0.78711   0.00000 
C          C       0.89231   0.41014   0.00000 
C          C       0.58986   0.48217   0.00000 
C          C       0.51783   0.10769   0.00000 
C          C       0.10769   0.58986   0.00000 
C          C       0.41014   0.51783   0.00000 
C          C       0.48217   0.89231   0.00000 
N          N       0.91464   0.45265   0.00000 
N          N       0.54735   0.46199   0.00000 
N          N       0.53801   0.08536   0.00000 
N          N       0.08536   0.54735   0.00000 
N          N       0.45265   0.53801   0.00000 
N          N       0.46199   0.91464   0.00000 
C          C       0.95674   0.47590   0.00000 
C          C       0.52410   0.48084   0.00000 
C          C       0.51916   0.04326   0.00000 
C          C       0.04326   0.52410   0.00000 
C          C       0.47590   0.51916   0.00000 
C          C       0.48084   0.95674   0.00000 
C          C       0.98076   0.45634   0.00000 
C          C       0.54366   0.52442   0.00000 
C          C       0.47558   0.01924   0.00000 
C          C       0.01924   0.54366   0.00000 
C          C       0.45634   0.47558   0.00000 
C          C       0.52442   0.98076   0.00000 
C          C       0.02407   0.48068   0.00000 
C          C       0.51932   0.54339   0.00000 
C          C       0.45661   0.97593   0.00000 
C          C       0.97593   0.51932   0.00000 
C          C       0.48068   0.45661   0.00000 
C          C       0.54339   0.02407   0.00000 
C          C       0.28964   0.65236   0.00000 
C          C       0.34764   0.63728   0.00000 
C          C       0.36272   0.71036   0.00000 
C          C       0.71036   0.34764   0.00000 
C          C       0.65236   0.36272   0.00000 
C          C       0.63728   0.28964   0.00000 
C          C       0.30479   0.62424   0.00000 
C          C       0.37576   0.68055   0.00000 
C          C       0.31945   0.69521   0.00000 
C          C       0.69521   0.37576   0.00000 
C          C       0.62424   0.31945   0.00000 
C          C       0.68055   0.30479   0.00000 
C          C       0.41273   0.45301   0.00000 
C          C       0.54699   0.95972   0.00000 
C          C       0.04028   0.58727   0.00000 
C          C       0.58727   0.54699   0.00000 
C          C       0.45301   0.04028   0.00000 
C          C       0.95972   0.41273   0.00000 
C          C       0.08383   0.61070   0.00000 
C          C       0.38930   0.47313   0.00000 
C          C       0.52687   0.91617   0.00000 
C          C       0.91617   0.38930   0.00000 
C          C       0.61070   0.52687   0.00000 
C          C       0.47313   0.08383   0.00000 
C          C       0.90382   0.34729   0.00000 
C          C       0.65271   0.55653   0.00000 
C          C       0.44347   0.09618   0.00000 
C          C       0.09618   0.65271   0.00000 
C          C       0.34729   0.44347   0.00000 
C          C       0.55653   0.90382   0.00000 
C          C       0.93710   0.34053   0.00000 
C          C       0.65947   0.59657   0.00000 
C          C       0.40343   0.06290   0.00000 
C          C       0.06290   0.65947   0.00000 
C          C       0.34053   0.40343   0.00000 
C          C       0.59657   0.93710   0.00000 
S          S       0.98464   0.38433   0.00000 
S          S       0.61567   0.60031   0.00000 
S          S       0.39969   0.01536   0.00000 
S          S       0.01536   0.61567   0.00000 
S          S       0.38433   0.39969   0.00000 
S          S       0.60031   0.98464   0.00000 
C          C       0.93200   0.29796   0.00000 
C          C       0.70204   0.63404   0.00000 
C          C       0.36596   0.06800   0.00000 
C          C       0.06800   0.70204   0.00000 
C          C       0.29796   0.36596   0.00000 
C          C       0.63404   0.93200   0.00000 
H          H       0.75282   0.30185   0.00000 
H          H       0.69815   0.45097   0.00000 
H          H       0.54903   0.24718   0.00000 
H          H       0.24718   0.69815   0.00000 
H          H       0.30185   0.54903   0.00000 
H          H       0.45097   0.75282   0.00000 
H          H       0.82262   0.32500   0.00000 
H          H       0.67500   0.49762   0.00000 
H          H       0.50238   0.17738   0.00000 
H          H       0.17738   0.67500   0.00000 
H          H       0.32500   0.50238   0.00000 
H          H       0.49762   0.82262   0.00000 
H          H       0.85031   0.45282   0.00000 
H          H       0.54718   0.39749   0.00000 
H          H       0.60251   0.14969   0.00000 
H          H       0.14969   0.54718   0.00000 
H          H       0.45282   0.60251   0.00000 
H          H       0.39749   0.85031   0.00000 
H          H       0.77931   0.42996   0.00000 
H          H       0.57004   0.34935   0.00000 
H          H       0.65065   0.22069   0.00000 
H          H       0.22069   0.57004   0.00000 
H          H       0.42996   0.65065   0.00000 
H          H       0.34935   0.77931   0.00000 
H          H       0.04349   0.46654   0.00000 
H          H       0.53346   0.57695   0.00000 
H          H       0.42305   0.95651   0.00000 
H          H       0.95651   0.53346   0.00000 
H          H       0.46654   0.42305   0.00000 
H          H       0.57695   0.04349   0.00000 
H          H       0.28304   0.59191   0.00000 
H          H       0.40809   0.69113   0.00000 
H          H       0.30887   0.71696   0.00000 
H          H       0.71696   0.40809   0.00000 
H          H       0.59191   0.30887   0.00000 
H          H       0.69113   0.28304   0.00000 
H          H       0.87330   0.32100   0.00000 
H          H       0.67900   0.55230   0.00000 
H          H       0.44770   0.12670   0.00000 
H          H       0.12670   0.67900   0.00000 
H          H       0.32100   0.44770   0.00000 
H          H       0.55230   0.87330   0.00000 
H          H       0.96260   0.29937   0.00000 
H          H       0.70063   0.66323   0.00000 
H          H       0.33677   0.03740   0.00000 
H          H       0.03740   0.70063   0.00000 
H          H       0.29937   0.33677   0.00000 
H          H       0.66323   0.96260   0.00000 
H          H       0.91354   0.28007   0.88617 
H          H       0.71993   0.63347   0.88617 
H          H       0.36653   0.08646   0.88617 
H          H       0.08646   0.71993   0.88617 
H          H       0.28007   0.36653   0.88617 
H          H       0.63347   0.91354   0.88617 
H          H       0.08646   0.71993   0.61383 
H          H       0.28007   0.36653   0.61383 
H          H       0.63347   0.91354   0.61383 
H          H       0.91354   0.28007   0.61383 
H          H       0.71993   0.63347   0.61383 
H          H       0.36653   0.08646   0.61383 
C          C       0.75697   0.36291   0.50000 
C          C       0.63709   0.39406   0.50000 
C          C       0.60594   0.24303   0.50000 
C          C       0.24303   0.63709   0.50000 
C          C       0.36291   0.60594   0.50000 
C          C       0.39406   0.75697   0.50000 
C          C       0.77260   0.33510   0.50000 
C          C       0.66490   0.43750   0.50000 
C          C       0.56250   0.22740   0.50000 
C          C       0.22740   0.66490   0.50000 
C          C       0.33510   0.56250   0.50000 
C          C       0.43750   0.77260   0.50000 
C          C       0.81529   0.34907   0.50000 
C          C       0.65093   0.46622   0.50000 
C          C       0.53378   0.18471   0.50000 
C          C       0.18471   0.65093   0.50000 
C          C       0.34907   0.53378   0.50000 
C          C       0.46622   0.81529   0.50000 
C          C       0.84530   0.39167   0.50000 
C          C       0.60833   0.45363   0.50000 
C          C       0.54637   0.15470   0.50000 
C          C       0.15470   0.60833   0.50000 
C          C       0.39167   0.54637   0.50000 
C          C       0.45363   0.84530   0.50000 
C          C       0.82966   0.41946   0.50000 
C          C       0.58054   0.41020   0.50000 
C          C       0.58980   0.17034   0.50000 
C          C       0.17034   0.58054   0.50000 
C          C       0.41946   0.58980   0.50000 
C          C       0.41020   0.82966   0.50000 
C          C       0.78711   0.40569   0.50000 
C          C       0.59431   0.38142   0.50000 
C          C       0.61858   0.21289   0.50000 
C          C       0.21289   0.59431   0.50000 
C          C       0.40569   0.61858   0.50000 
C          C       0.38142   0.78711   0.50000 
C          C       0.89231   0.41014   0.50000 
C          C       0.58986   0.48217   0.50000 
C          C       0.51783   0.10769   0.50000 
C          C       0.10769   0.58986   0.50000 
C          C       0.41014   0.51783   0.50000 
C          C       0.48217   0.89231   0.50000 
N          N       0.91464   0.45265   0.50000 
N          N       0.54735   0.46199   0.50000 
N          N       0.53801   0.08536   0.50000 
N          N       0.08536   0.54735   0.50000 
N          N       0.45265   0.53801   0.50000 
N          N       0.46199   0.91464   0.50000 
C          C       0.95674   0.47590   0.50000 
C          C       0.52410   0.48084   0.50000 
C          C       0.51916   0.04326   0.50000 
C          C       0.04326   0.52410   0.50000 
C          C       0.47590   0.51916   0.50000 
C          C       0.48084   0.95674   0.50000 
C          C       0.98076   0.45634   0.50000 
C          C       0.54366   0.52442   0.50000 
C          C       0.47558   0.01924   0.50000 
C          C       0.01924   0.54366   0.50000 
C          C       0.45634   0.47558   0.50000 
C          C       0.52442   0.98076   0.50000 
C          C       0.02407   0.48068   0.50000 
C          C       0.51932   0.54339   0.50000 
C          C       0.45661   0.97593   0.50000 
C          C       0.97593   0.51932   0.50000 
C          C       0.48068   0.45661   0.50000 
C          C       0.54339   0.02407   0.50000 
C          C       0.28964   0.65236   0.50000 
C          C       0.34764   0.63728   0.50000 
C          C       0.36272   0.71036   0.50000 
C          C       0.71036   0.34764   0.50000 
C          C       0.65236   0.36272   0.50000 
C          C       0.63728   0.28964   0.50000 
C          C       0.30479   0.62424   0.50000 
C          C       0.37576   0.68055   0.50000 
C          C       0.31945   0.69521   0.50000 
C          C       0.69521   0.37576   0.50000 
C          C       0.62424   0.31945   0.50000 
C          C       0.68055   0.30479   0.50000 
C          C       0.41273   0.45301   0.50000 
C          C       0.54699   0.95972   0.50000 
C          C       0.04028   0.58727   0.50000 
C          C       0.58727   0.54699   0.50000 
C          C       0.45301   0.04028   0.50000 
C          C       0.95972   0.41273   0.50000 
C          C       0.08383   0.61070   0.50000 
C          C       0.38930   0.47313   0.50000 
C          C       0.52687   0.91617   0.50000 
C          C       0.91617   0.38930   0.50000 
C          C       0.61070   0.52687   0.50000 
C          C       0.47313   0.08383   0.50000 
C          C       0.90382   0.34729   0.50000 
C          C       0.65271   0.55653   0.50000 
C          C       0.44347   0.09618   0.50000 
C          C       0.09618   0.65271   0.50000 
C          C       0.34729   0.44347   0.50000 
C          C       0.55653   0.90382   0.50000 
C          C       0.93710   0.34053   0.50000 
C          C       0.65947   0.59657   0.50000 
C          C       0.40343   0.06290   0.50000 
C          C       0.06290   0.65947   0.50000 
C          C       0.34053   0.40343   0.50000 
C          C       0.59657   0.93710   0.50000 
S          S       0.98464   0.38433   0.50000 
S          S       0.61567   0.60031   0.50000 
S          S       0.39969   0.01536   0.50000 
S          S       0.01536   0.61567   0.50000 
S          S       0.38433   0.39969   0.50000 
S          S       0.60031   0.98464   0.50000 
C          C       0.93200   0.29796   0.50000 
C          C       0.70204   0.63404   0.50000 
C          C       0.36596   0.06800   0.50000 
C          C       0.06800   0.70204   0.50000 
C          C       0.29796   0.36596   0.50000 
C          C       0.63404   0.93200   0.50000 
H          H       0.75282   0.30185   0.50000 
H          H       0.69815   0.45097   0.50000 
H          H       0.54903   0.24718   0.50000 
H          H       0.24718   0.69815   0.50000 
H          H       0.30185   0.54903   0.50000 
H          H       0.45097   0.75282   0.50000 
H          H       0.82262   0.32500   0.50000 
H          H       0.67500   0.49762   0.50000 
H          H       0.50238   0.17738   0.50000 
H          H       0.17738   0.67500   0.50000 
H          H       0.32500   0.50238   0.50000 
H          H       0.49762   0.82262   0.50000 
H          H       0.85031   0.45282   0.50000 
H          H       0.54718   0.39749   0.50000 
H          H       0.60251   0.14969   0.50000 
H          H       0.14969   0.54718   0.50000 
H          H       0.45282   0.60251   0.50000 
H          H       0.39749   0.85031   0.50000 
H          H       0.77931   0.42996   0.50000 
H          H       0.57004   0.34935   0.50000 
H          H       0.65065   0.22069   0.50000 
H          H       0.22069   0.57004   0.50000 
H          H       0.42996   0.65065   0.50000 
H          H       0.34935   0.77931   0.50000 
H          H       0.04349   0.46654   0.50000 
H          H       0.53346   0.57695   0.50000 
H          H       0.42305   0.95651   0.50000 
H          H       0.95651   0.53346   0.50000 
H          H       0.46654   0.42305   0.50000 
H          H       0.57695   0.04349   0.50000 
H          H       0.28304   0.59191   0.50000 
H          H       0.40809   0.69113   0.50000 
H          H       0.30887   0.71696   0.50000 
H          H       0.71696   0.40809   0.50000 
H          H       0.59191   0.30887   0.50000 
H          H       0.69113   0.28304   0.50000 
H          H       0.87330   0.32100   0.50000 
H          H       0.67900   0.55230   0.50000 
H          H       0.44770   0.12670   0.50000 
H          H       0.12670   0.67900   0.50000 
H          H       0.32100   0.44770   0.50000 
H          H       0.55230   0.87330   0.50000 
H          H       0.96260   0.29937   0.50000 
H          H       0.70063   0.66323   0.50000 
H          H       0.33677   0.03740   0.50000 
H          H       0.03740   0.70063   0.50000 
H          H       0.29937   0.33677   0.50000 
H          H       0.66323   0.96260   0.50000 
