data_crystal

_cell_length_a    36.61040
_cell_length_b    36.61040
_cell_length_c    7.58140
_cell_angle_alpha 90.00000
_cell_angle_beta  90.00000
_cell_angle_gamma 120.00000

_space_group_name_Hall 'P 1'
_space_group_name_H-M_alt  'P 1'

loop_
_symmetry_equiv_pos_as_xyz
'x,y,z' 

loop_
_atom_site_label
_atom_site_type_symbol
_atom_site_fract_x
_atom_site_fract_y
_atom_site_fract_z
H          H       0.91174   0.27701   0.38628 
H          H       0.72299   0.63473   0.38628 
H          H       0.36527   0.08826   0.38628 
H          H       0.08826   0.72299   0.38628 
H          H       0.27701   0.36527   0.38628 
H          H       0.63473   0.91174   0.38628 
H          H       0.08826   0.72299   0.11372 
H          H       0.27701   0.36527   0.11372 
H          H       0.63473   0.91174   0.11372 
H          H       0.91174   0.27701   0.11372 
H          H       0.72299   0.63473   0.11372 
H          H       0.36527   0.08826   0.11372 
C          C       0.75463   0.36192   0.00000 
C          C       0.63808   0.39271   0.00000 
C          C       0.60729   0.24537   0.00000 
C          C       0.24537   0.63808   0.00000 
C          C       0.36192   0.60729   0.00000 
C          C       0.39271   0.75463   0.00000 
C          C       0.76928   0.33318   0.00000 
C          C       0.66682   0.43610   0.00000 
C          C       0.56390   0.23072   0.00000 
C          C       0.23072   0.66682   0.00000 
C          C       0.33318   0.56390   0.00000 
C          C       0.43610   0.76928   0.00000 
C          C       0.81247   0.34709   0.00000 
C          C       0.65291   0.46538   0.00000 
C          C       0.53462   0.18753   0.00000 
C          C       0.18753   0.65291   0.00000 
C          C       0.34709   0.53462   0.00000 
C          C       0.46538   0.81247   0.00000 
C          C       0.84303   0.39045   0.00000 
C          C       0.60955   0.45258   0.00000 
C          C       0.54742   0.15697   0.00000 
C          C       0.15697   0.60955   0.00000 
C          C       0.39045   0.54742   0.00000 
C          C       0.45258   0.84303   0.00000 
C          C       0.82736   0.41894   0.00000 
C          C       0.58106   0.40842   0.00000 
C          C       0.59158   0.17264   0.00000 
C          C       0.17264   0.58106   0.00000 
C          C       0.41894   0.59158   0.00000 
C          C       0.40842   0.82736   0.00000 
C          C       0.78425   0.40503   0.00000 
C          C       0.59497   0.37922   0.00000 
C          C       0.62078   0.21575   0.00000 
C          C       0.21575   0.59497   0.00000 
C          C       0.40503   0.62078   0.00000 
C          C       0.37922   0.78425   0.00000 
C          C       0.89065   0.40906   0.00000 
C          C       0.59094   0.48159   0.00000 
C          C       0.51841   0.10935   0.00000 
C          C       0.10935   0.59094   0.00000 
C          C       0.40906   0.51841   0.00000 
C          C       0.48159   0.89065   0.00000 
N          N       0.91337   0.45214   0.00000 
N          N       0.54786   0.46123   0.00000 
N          N       0.53877   0.08663   0.00000 
N          N       0.08663   0.54786   0.00000 
N          N       0.45214   0.53877   0.00000 
N          N       0.46123   0.91337   0.00000 
C          C       0.95605   0.47560   0.00000 
C          C       0.52440   0.48045   0.00000 
C          C       0.51955   0.04395   0.00000 
C          C       0.04395   0.52440   0.00000 
C          C       0.47560   0.51955   0.00000 
C          C       0.48045   0.95605   0.00000 
C          C       0.98029   0.45568   0.00000 
C          C       0.54432   0.52461   0.00000 
C          C       0.47539   0.01971   0.00000 
C          C       0.01971   0.54432   0.00000 
C          C       0.45568   0.47539   0.00000 
C          C       0.52461   0.98029   0.00000 
C          C       0.02441   0.48039   0.00000 
C          C       0.51961   0.54402   0.00000 
C          C       0.45598   0.97559   0.00000 
C          C       0.97559   0.51961   0.00000 
C          C       0.48039   0.45598   0.00000 
C          C       0.54402   0.02441   0.00000 
C          C       0.29118   0.65297   0.00000 
C          C       0.34703   0.63821   0.00000 
C          C       0.36179   0.70882   0.00000 
C          C       0.70882   0.34703   0.00000 
C          C       0.65297   0.36179   0.00000 
C          C       0.63821   0.29118   0.00000 
N          N       0.30510   0.62484   0.00000 
N          N       0.37516   0.68026   0.00000 
N          N       0.31974   0.69490   0.00000 
N          N       0.69490   0.37516   0.00000 
N          N       0.62484   0.31974   0.00000 
N          N       0.68026   0.30510   0.00000 
C          C       0.41148   0.45262   0.00000 
C          C       0.54738   0.95886   0.00000 
C          C       0.04114   0.58852   0.00000 
C          C       0.58852   0.54738   0.00000 
C          C       0.45262   0.04114   0.00000 
C          C       0.95886   0.41148   0.00000 
C          C       0.08527   0.61215   0.00000 
C          C       0.38785   0.47312   0.00000 
C          C       0.52688   0.91473   0.00000 
C          C       0.91473   0.38785   0.00000 
C          C       0.61215   0.52688   0.00000 
C          C       0.47312   0.08527   0.00000 
C          C       0.90210   0.34525   0.00000 
C          C       0.65475   0.55685   0.00000 
C          C       0.44315   0.09790   0.00000 
C          C       0.09790   0.65475   0.00000 
C          C       0.34525   0.44315   0.00000 
C          C       0.55685   0.90210   0.00000 
C          C       0.93575   0.33827   0.00000 
C          C       0.66173   0.59748   0.00000 
C          C       0.40252   0.06425   0.00000 
C          C       0.06425   0.66173   0.00000 
C          C       0.33827   0.40252   0.00000 
C          C       0.59748   0.93575   0.00000 
S          S       0.98399   0.38257   0.00000 
S          S       0.61743   0.60142   0.00000 
S          S       0.39858   0.01601   0.00000 
S          S       0.01601   0.61743   0.00000 
S          S       0.38257   0.39858   0.00000 
S          S       0.60142   0.98399   0.00000 
C          C       0.93045   0.29508   0.00000 
C          C       0.70492   0.63537   0.00000 
C          C       0.36463   0.06955   0.00000 
C          C       0.06955   0.70492   0.00000 
C          C       0.29508   0.36463   0.00000 
C          C       0.63537   0.93045   0.00000 
H          H       0.74725   0.29955   0.00000 
H          H       0.70045   0.44770   0.00000 
H          H       0.55230   0.25275   0.00000 
H          H       0.25275   0.70045   0.00000 
H          H       0.29955   0.55230   0.00000 
H          H       0.44770   0.74725   0.00000 
H          H       0.81966   0.32253   0.00000 
H          H       0.67747   0.49713   0.00000 
H          H       0.50287   0.18034   0.00000 
H          H       0.18034   0.67747   0.00000 
H          H       0.32253   0.50287   0.00000 
H          H       0.49713   0.81966   0.00000 
H          H       0.84831   0.45274   0.00000 
H          H       0.54726   0.39557   0.00000 
H          H       0.60443   0.15169   0.00000 
H          H       0.15169   0.54726   0.00000 
H          H       0.45274   0.60443   0.00000 
H          H       0.39557   0.84831   0.00000 
H          H       0.77424   0.42830   0.00000 
H          H       0.57170   0.34594   0.00000 
H          H       0.65406   0.22576   0.00000 
H          H       0.22576   0.57170   0.00000 
H          H       0.42830   0.65406   0.00000 
H          H       0.34594   0.77424   0.00000 
H          H       0.04401   0.46598   0.00000 
H          H       0.53402   0.57803   0.00000 
H          H       0.42197   0.95599   0.00000 
H          H       0.95599   0.53402   0.00000 
H          H       0.46598   0.42197   0.00000 
H          H       0.57803   0.04401   0.00000 
H          H       0.87114   0.31867   0.00000 
H          H       0.68133   0.55247   0.00000 
H          H       0.44753   0.12886   0.00000 
H          H       0.12886   0.68133   0.00000 
H          H       0.31867   0.44753   0.00000 
H          H       0.55247   0.87114   0.00000 
H          H       0.96142   0.29643   0.00000 
H          H       0.70357   0.66499   0.00000 
H          H       0.33501   0.03858   0.00000 
H          H       0.03858   0.70357   0.00000 
H          H       0.29643   0.33501   0.00000 
H          H       0.66499   0.96142   0.00000 
H          H       0.91174   0.27701   0.88628 
H          H       0.72299   0.63473   0.88628 
H          H       0.36527   0.08826   0.88628 
H          H       0.08826   0.72299   0.88628 
H          H       0.27701   0.36527   0.88628 
H          H       0.63473   0.91174   0.88628 
H          H       0.08826   0.72299   0.61372 
H          H       0.27701   0.36527   0.61372 
H          H       0.63473   0.91174   0.61372 
H          H       0.91174   0.27701   0.61372 
H          H       0.72299   0.63473   0.61372 
H          H       0.36527   0.08826   0.61372 
C          C       0.75463   0.36192   0.50000 
C          C       0.63808   0.39271   0.50000 
C          C       0.60729   0.24537   0.50000 
C          C       0.24537   0.63808   0.50000 
C          C       0.36192   0.60729   0.50000 
C          C       0.39271   0.75463   0.50000 
C          C       0.76928   0.33318   0.50000 
C          C       0.66682   0.43610   0.50000 
C          C       0.56390   0.23072   0.50000 
C          C       0.23072   0.66682   0.50000 
C          C       0.33318   0.56390   0.50000 
C          C       0.43610   0.76928   0.50000 
C          C       0.81247   0.34709   0.50000 
C          C       0.65291   0.46538   0.50000 
C          C       0.53462   0.18753   0.50000 
C          C       0.18753   0.65291   0.50000 
C          C       0.34709   0.53462   0.50000 
C          C       0.46538   0.81247   0.50000 
C          C       0.84303   0.39045   0.50000 
C          C       0.60955   0.45258   0.50000 
C          C       0.54742   0.15697   0.50000 
C          C       0.15697   0.60955   0.50000 
C          C       0.39045   0.54742   0.50000 
C          C       0.45258   0.84303   0.50000 
C          C       0.82736   0.41894   0.50000 
C          C       0.58106   0.40842   0.50000 
C          C       0.59158   0.17264   0.50000 
C          C       0.17264   0.58106   0.50000 
C          C       0.41894   0.59158   0.50000 
C          C       0.40842   0.82736   0.50000 
C          C       0.78425   0.40503   0.50000 
C          C       0.59497   0.37922   0.50000 
C          C       0.62078   0.21575   0.50000 
C          C       0.21575   0.59497   0.50000 
C          C       0.40503   0.62078   0.50000 
C          C       0.37922   0.78425   0.50000 
C          C       0.89065   0.40906   0.50000 
C          C       0.59094   0.48159   0.50000 
C          C       0.51841   0.10935   0.50000 
C          C       0.10935   0.59094   0.50000 
C          C       0.40906   0.51841   0.50000 
C          C       0.48159   0.89065   0.50000 
N          N       0.91337   0.45214   0.50000 
N          N       0.54786   0.46123   0.50000 
N          N       0.53877   0.08663   0.50000 
N          N       0.08663   0.54786   0.50000 
N          N       0.45214   0.53877   0.50000 
N          N       0.46123   0.91337   0.50000 
C          C       0.95605   0.47560   0.50000 
C          C       0.52440   0.48045   0.50000 
C          C       0.51955   0.04395   0.50000 
C          C       0.04395   0.52440   0.50000 
C          C       0.47560   0.51955   0.50000 
C          C       0.48045   0.95605   0.50000 
C          C       0.98029   0.45568   0.50000 
C          C       0.54432   0.52461   0.50000 
C          C       0.47539   0.01971   0.50000 
C          C       0.01971   0.54432   0.50000 
C          C       0.45568   0.47539   0.50000 
C          C       0.52461   0.98029   0.50000 
C          C       0.02441   0.48039   0.50000 
C          C       0.51961   0.54402   0.50000 
C          C       0.45598   0.97559   0.50000 
C          C       0.97559   0.51961   0.50000 
C          C       0.48039   0.45598   0.50000 
C          C       0.54402   0.02441   0.50000 
C          C       0.29118   0.65297   0.50000 
C          C       0.34703   0.63821   0.50000 
C          C       0.36179   0.70882   0.50000 
C          C       0.70882   0.34703   0.50000 
C          C       0.65297   0.36179   0.50000 
C          C       0.63821   0.29118   0.50000 
N          N       0.30510   0.62484   0.50000 
N          N       0.37516   0.68026   0.50000 
N          N       0.31974   0.69490   0.50000 
N          N       0.69490   0.37516   0.50000 
N          N       0.62484   0.31974   0.50000 
N          N       0.68026   0.30510   0.50000 
C          C       0.41148   0.45262   0.50000 
C          C       0.54738   0.95886   0.50000 
C          C       0.04114   0.58852   0.50000 
C          C       0.58852   0.54738   0.50000 
C          C       0.45262   0.04114   0.50000 
C          C       0.95886   0.41148   0.50000 
C          C       0.08527   0.61215   0.50000 
C          C       0.38785   0.47312   0.50000 
C          C       0.52688   0.91473   0.50000 
C          C       0.91473   0.38785   0.50000 
C          C       0.61215   0.52688   0.50000 
C          C       0.47312   0.08527   0.50000 
C          C       0.90210   0.34525   0.50000 
C          C       0.65475   0.55685   0.50000 
C          C       0.44315   0.09790   0.50000 
C          C       0.09790   0.65475   0.50000 
C          C       0.34525   0.44315   0.50000 
C          C       0.55685   0.90210   0.50000 
C          C       0.93575   0.33827   0.50000 
C          C       0.66173   0.59748   0.50000 
C          C       0.40252   0.06425   0.50000 
C          C       0.06425   0.66173   0.50000 
C          C       0.33827   0.40252   0.50000 
C          C       0.59748   0.93575   0.50000 
S          S       0.98399   0.38257   0.50000 
S          S       0.61743   0.60142   0.50000 
S          S       0.39858   0.01601   0.50000 
S          S       0.01601   0.61743   0.50000 
S          S       0.38257   0.39858   0.50000 
S          S       0.60142   0.98399   0.50000 
C          C       0.93045   0.29508   0.50000 
C          C       0.70492   0.63537   0.50000 
C          C       0.36463   0.06955   0.50000 
C          C       0.06955   0.70492   0.50000 
C          C       0.29508   0.36463   0.50000 
C          C       0.63537   0.93045   0.50000 
H          H       0.74725   0.29955   0.50000 
H          H       0.70045   0.44770   0.50000 
H          H       0.55230   0.25275   0.50000 
H          H       0.25275   0.70045   0.50000 
H          H       0.29955   0.55230   0.50000 
H          H       0.44770   0.74725   0.50000 
H          H       0.81966   0.32253   0.50000 
H          H       0.67747   0.49713   0.50000 
H          H       0.50287   0.18034   0.50000 
H          H       0.18034   0.67747   0.50000 
H          H       0.32253   0.50287   0.50000 
H          H       0.49713   0.81966   0.50000 
H          H       0.84831   0.45274   0.50000 
H          H       0.54726   0.39557   0.50000 
H          H       0.60443   0.15169   0.50000 
H          H       0.15169   0.54726   0.50000 
H          H       0.45274   0.60443   0.50000 
H          H       0.39557   0.84831   0.50000 
H          H       0.77424   0.42830   0.50000 
H          H       0.57170   0.34594   0.50000 
H          H       0.65406   0.22576   0.50000 
H          H       0.22576   0.57170   0.50000 
H          H       0.42830   0.65406   0.50000 
H          H       0.34594   0.77424   0.50000 
H          H       0.04401   0.46598   0.50000 
H          H       0.53402   0.57803   0.50000 
H          H       0.42197   0.95599   0.50000 
H          H       0.95599   0.53402   0.50000 
H          H       0.46598   0.42197   0.50000 
H          H       0.57803   0.04401   0.50000 
H          H       0.87114   0.31867   0.50000 
H          H       0.68133   0.55247   0.50000 
H          H       0.44753   0.12886   0.50000 
H          H       0.12886   0.68133   0.50000 
H          H       0.31867   0.44753   0.50000 
H          H       0.55247   0.87114   0.50000 
H          H       0.96142   0.29643   0.50000 
H          H       0.70357   0.66499   0.50000 
H          H       0.33501   0.03858   0.50000 
H          H       0.03858   0.70357   0.50000 
H          H       0.29643   0.33501   0.50000 
H          H       0.66499   0.96142   0.50000 
