data_crystal

_cell_length_a    36.36490
_cell_length_b    36.36490
_cell_length_c    7.67560
_cell_angle_alpha 90.00000
_cell_angle_beta  90.00000
_cell_angle_gamma 120.00000

_space_group_name_Hall 'P 1'
_space_group_name_H-M_alt  'P 1'

loop_
_symmetry_equiv_pos_as_xyz
'x,y,z' 

loop_
_atom_site_label
_atom_site_type_symbol
_atom_site_fract_x
_atom_site_fract_y
_atom_site_fract_z
C          C       0.40710   0.56021   0.41793 
C          C       0.43979   0.84689   0.41793 
C          C       0.15311   0.59290   0.41793 
C          C       0.59290   0.43979   0.41793 
C          C       0.56021   0.15311   0.41793 
C          C       0.84689   0.40710   0.41793 
C          C       0.42840   0.60225   0.47828 
C          C       0.39775   0.82615   0.47828 
C          C       0.17385   0.57160   0.47828 
C          C       0.57160   0.39775   0.47828 
C          C       0.60225   0.17385   0.47828 
C          C       0.82615   0.42840   0.47828 
C          C       0.41095   0.62841   0.45398 
C          C       0.37159   0.78254   0.45398 
C          C       0.21746   0.58905   0.45398 
C          C       0.58905   0.37159   0.45398 
C          C       0.62841   0.21746   0.45398 
C          C       0.78254   0.41095   0.45398 
C          C       0.37221   0.61360   0.36462 
C          C       0.38640   0.75861   0.36462 
C          C       0.24139   0.62779   0.36462 
C          C       0.62779   0.38640   0.36462 
C          C       0.61360   0.24139   0.36462 
C          C       0.75861   0.37221   0.36462 
C          C       0.35193   0.57187   0.29807 
C          C       0.42813   0.78006   0.29807 
C          C       0.21994   0.64807   0.29807 
C          C       0.64807   0.42813   0.29807 
C          C       0.57187   0.21994   0.29807 
C          C       0.78006   0.35193   0.29807 
C          C       0.36892   0.54536   0.32657 
C          C       0.45464   0.82356   0.32657 
C          C       0.17644   0.63108   0.32657 
C          C       0.63108   0.45464   0.32657 
C          C       0.54536   0.17644   0.32657 
C          C       0.82356   0.36892   0.32657 
C          C       0.35231   0.64086   0.34848 
C          C       0.35914   0.71145   0.34848 
C          C       0.28855   0.64769   0.34848 
C          C       0.64769   0.35914   0.34848 
C          C       0.64086   0.28855   0.34848 
C          C       0.71145   0.35231   0.34848 
C          C       0.37750   0.68539   0.34677 
C          C       0.31461   0.69211   0.34677 
C          C       0.30789   0.62250   0.34677 
C          C       0.62250   0.31461   0.34677 
C          C       0.68539   0.30789   0.34677 
C          C       0.69211   0.37750   0.34677 
C          C       0.46896   0.89211   0.45709 
C          C       0.10789   0.57685   0.45709 
C          C       0.42315   0.53104   0.45709 
C          C       0.53104   0.10789   0.45709 
C          C       0.89211   0.42315   0.45709 
C          C       0.57685   0.46896   0.45709 
N          N       0.45427   0.91560   0.03602 
N          N       0.08440   0.53867   0.03602 
N          N       0.46133   0.54573   0.03602 
N          N       0.54573   0.08440   0.03602 
N          N       0.91560   0.46133   0.03602 
N          N       0.53867   0.45427   0.03602 
C          C       0.47722   0.95624   0.09513 
C          C       0.04376   0.52098   0.09513 
C          C       0.47902   0.52278   0.09513 
C          C       0.52278   0.04376   0.09513 
C          C       0.95624   0.47902   0.09513 
C          C       0.52098   0.47722   0.09513 
C          C       0.45614   0.47802   0.10404 
C          C       0.52198   0.97812   0.10404 
C          C       0.02188   0.54386   0.10404 
C          C       0.54386   0.52198   0.10404 
C          C       0.47802   0.02188   0.10404 
C          C       0.97812   0.45614   0.10404 
C          C       0.47770   0.45585   0.15792 
C          C       0.54415   0.02185   0.15792 
C          C       0.97815   0.52230   0.15792 
C          C       0.52230   0.54415   0.15792 
C          C       0.45585   0.97815   0.15792 
C          C       0.02185   0.47770   0.15792 
C          C       0.95498   0.54705   0.13272 
C          C       0.45295   0.40793   0.13272 
C          C       0.59207   0.04502   0.13272 
C          C       0.04502   0.45295   0.13272 
C          C       0.54705   0.59207   0.13272 
C          C       0.40793   0.95498   0.13272 
C          C       0.91502   0.53338   0.20147 
C          C       0.46662   0.38164   0.20147 
C          C       0.61836   0.08498   0.20147 
C          C       0.08498   0.46662   0.20147 
C          C       0.53338   0.61836   0.20147 
C          C       0.38164   0.91502   0.20147 
S          S       0.97626   0.59575   0.03197 
S          S       0.40425   0.38051   0.03197 
S          S       0.61949   0.02374   0.03197 
S          S       0.02374   0.40425   0.03197 
S          S       0.59575   0.61949   0.03197 
S          S       0.38051   0.97626   0.03197 
C          C       0.93050   0.59623   0.07815 
C          C       0.40377   0.33427   0.07815 
C          C       0.66573   0.06950   0.07815 
C          C       0.06950   0.40377   0.07815 
C          C       0.59623   0.66573   0.07815 
C          C       0.33427   0.93050   0.07815 
C          C       0.90079   0.56109   0.16779 
C          C       0.43891   0.33970   0.16779 
C          C       0.66030   0.09921   0.16779 
C          C       0.09921   0.43891   0.16779 
C          C       0.56109   0.66030   0.16779 
C          C       0.33970   0.90079   0.16779 
C          C       0.07648   0.36818   0.02599 
C          C       0.63182   0.70830   0.02599 
C          C       0.29170   0.92352   0.02599 
C          C       0.92352   0.63182   0.02599 
C          C       0.36818   0.29170   0.02599 
C          C       0.70830   0.07648   0.02599 
H          H       0.45773   0.61456   0.05066 
H          H       0.38544   0.84317   0.05066 
H          H       0.15683   0.54227   0.05066 
H          H       0.54227   0.38544   0.05066 
H          H       0.61456   0.15683   0.05066 
H          H       0.84317   0.45773   0.05066 
H          H       0.42718   0.65961   0.01272 
H          H       0.34039   0.76757   0.01272 
H          H       0.23243   0.57282   0.01272 
H          H       0.57282   0.34039   0.01272 
H          H       0.65961   0.23243   0.01272 
H          H       0.76757   0.42718   0.01272 
H          H       0.32296   0.55952   0.22303 
H          H       0.44048   0.76344   0.22303 
H          H       0.23656   0.67704   0.22303 
H          H       0.67704   0.44048   0.22303 
H          H       0.55952   0.23656   0.22303 
H          H       0.76344   0.32296   0.22303 
H          H       0.35219   0.51318   0.27692 
H          H       0.48682   0.83901   0.27692 
H          H       0.16099   0.64781   0.27692 
H          H       0.64781   0.48682   0.27692 
H          H       0.51318   0.16099   0.27692 
H          H       0.83901   0.35219   0.27692 
H          H       0.41162   0.69983   0.34892 
H          H       0.30017   0.71179   0.34892 
H          H       0.28821   0.58838   0.34892 
H          H       0.58838   0.30017   0.34892 
H          H       0.69983   0.28821   0.34892 
H          H       0.71179   0.41162   0.34892 
H          H       0.50196   0.90598   0.42028 
H          H       0.09402   0.59598   0.42028 
H          H       0.40402   0.49804   0.42028 
H          H       0.49804   0.09402   0.42028 
H          H       0.90598   0.40402   0.42028 
H          H       0.59598   0.50196   0.42028 
H          H       0.42221   0.46095   0.08502 
H          H       0.53905   0.96126   0.08502 
H          H       0.03874   0.57779   0.08502 
H          H       0.57779   0.53905   0.08502 
H          H       0.46095   0.03874   0.08502 
H          H       0.96126   0.42221   0.08502 
H          H       0.89699   0.50439   0.27504 
H          H       0.49561   0.39260   0.27504 
H          H       0.60740   0.10301   0.27504 
H          H       0.10301   0.49561   0.27504 
H          H       0.50439   0.60740   0.27504 
H          H       0.39260   0.89699   0.27504 
H          H       0.87022   0.55617   0.20952 
H          H       0.44383   0.31405   0.20952 
H          H       0.68595   0.12978   0.20952 
H          H       0.12978   0.44383   0.20952 
H          H       0.55617   0.68595   0.20952 
H          H       0.31405   0.87022   0.20952 
H          H       0.08074   0.35296   0.14343 
H          H       0.64704   0.72778   0.14343 
H          H       0.27222   0.91926   0.14343 
H          H       0.91926   0.64704   0.14343 
H          H       0.35296   0.27222   0.14343 
H          H       0.72778   0.08074   0.14343 
H          H       0.10539   0.38061   0.44385 
H          H       0.61939   0.72478   0.44385 
H          H       0.27522   0.89461   0.44385 
H          H       0.89461   0.61939   0.44385 
H          H       0.38061   0.27522   0.44385 
H          H       0.72478   0.10539   0.44385 
H          H       0.04884   0.34393   0.45110 
H          H       0.65607   0.70491   0.45110 
H          H       0.29509   0.95116   0.45110 
H          H       0.95116   0.65607   0.45110 
H          H       0.34393   0.29509   0.45110 
H          H       0.70491   0.04884   0.45110 
C          C       0.40710   0.56021   0.91793 
C          C       0.43979   0.84689   0.91793 
C          C       0.15311   0.59290   0.91793 
C          C       0.59290   0.43979   0.91793 
C          C       0.56021   0.15311   0.91793 
C          C       0.84689   0.40710   0.91793 
C          C       0.42840   0.60225   0.97828 
C          C       0.39775   0.82615   0.97828 
C          C       0.17385   0.57160   0.97828 
C          C       0.57160   0.39775   0.97828 
C          C       0.60225   0.17385   0.97828 
C          C       0.82615   0.42840   0.97828 
C          C       0.41095   0.62841   0.95398 
C          C       0.37159   0.78254   0.95398 
C          C       0.21746   0.58905   0.95398 
C          C       0.58905   0.37159   0.95398 
C          C       0.62841   0.21746   0.95398 
C          C       0.78254   0.41095   0.95398 
C          C       0.37221   0.61360   0.86462 
C          C       0.38640   0.75861   0.86462 
C          C       0.24139   0.62779   0.86462 
C          C       0.62779   0.38640   0.86462 
C          C       0.61360   0.24139   0.86462 
C          C       0.75861   0.37221   0.86462 
C          C       0.35193   0.57187   0.79807 
C          C       0.42813   0.78006   0.79807 
C          C       0.21994   0.64807   0.79807 
C          C       0.64807   0.42813   0.79807 
C          C       0.57187   0.21994   0.79807 
C          C       0.78006   0.35193   0.79807 
C          C       0.36892   0.54536   0.82657 
C          C       0.45464   0.82356   0.82657 
C          C       0.17644   0.63108   0.82657 
C          C       0.63108   0.45464   0.82657 
C          C       0.54536   0.17644   0.82657 
C          C       0.82356   0.36892   0.82657 
C          C       0.35231   0.64086   0.84848 
C          C       0.35914   0.71145   0.84848 
C          C       0.28855   0.64769   0.84848 
C          C       0.64769   0.35914   0.84848 
C          C       0.64086   0.28855   0.84848 
C          C       0.71145   0.35231   0.84848 
C          C       0.37750   0.68539   0.84677 
C          C       0.31461   0.69211   0.84677 
C          C       0.30789   0.62250   0.84677 
C          C       0.62250   0.31461   0.84677 
C          C       0.68539   0.30789   0.84677 
C          C       0.69211   0.37750   0.84677 
C          C       0.46896   0.89211   0.95709 
C          C       0.10789   0.57685   0.95709 
C          C       0.42315   0.53104   0.95709 
C          C       0.53104   0.10789   0.95709 
C          C       0.89211   0.42315   0.95709 
C          C       0.57685   0.46896   0.95709 
N          N       0.45427   0.91560   0.53602 
N          N       0.08440   0.53867   0.53602 
N          N       0.46133   0.54573   0.53602 
N          N       0.54573   0.08440   0.53602 
N          N       0.91560   0.46133   0.53602 
N          N       0.53867   0.45427   0.53602 
C          C       0.47722   0.95624   0.59513 
C          C       0.04376   0.52098   0.59513 
C          C       0.47902   0.52278   0.59513 
C          C       0.52278   0.04376   0.59513 
C          C       0.95624   0.47902   0.59513 
C          C       0.52098   0.47722   0.59513 
C          C       0.45614   0.47802   0.60404 
C          C       0.52198   0.97812   0.60404 
C          C       0.02188   0.54386   0.60404 
C          C       0.54386   0.52198   0.60404 
C          C       0.47802   0.02188   0.60404 
C          C       0.97812   0.45614   0.60404 
C          C       0.47770   0.45585   0.65792 
C          C       0.54415   0.02185   0.65792 
C          C       0.97815   0.52230   0.65792 
C          C       0.52230   0.54415   0.65792 
C          C       0.45585   0.97815   0.65792 
C          C       0.02185   0.47770   0.65792 
C          C       0.95498   0.54705   0.63272 
C          C       0.45295   0.40793   0.63272 
C          C       0.59207   0.04502   0.63272 
C          C       0.04502   0.45295   0.63272 
C          C       0.54705   0.59207   0.63272 
C          C       0.40793   0.95498   0.63272 
C          C       0.91502   0.53338   0.70147 
C          C       0.46662   0.38164   0.70147 
C          C       0.61836   0.08498   0.70147 
C          C       0.08498   0.46662   0.70147 
C          C       0.53338   0.61836   0.70147 
C          C       0.38164   0.91502   0.70147 
S          S       0.97626   0.59575   0.53197 
S          S       0.40425   0.38051   0.53197 
S          S       0.61949   0.02374   0.53197 
S          S       0.02374   0.40425   0.53197 
S          S       0.59575   0.61949   0.53197 
S          S       0.38051   0.97626   0.53197 
C          C       0.93050   0.59623   0.57815 
C          C       0.40377   0.33427   0.57815 
C          C       0.66573   0.06950   0.57815 
C          C       0.06950   0.40377   0.57815 
C          C       0.59623   0.66573   0.57815 
C          C       0.33427   0.93050   0.57815 
C          C       0.90079   0.56109   0.66779 
C          C       0.43891   0.33970   0.66779 
C          C       0.66030   0.09921   0.66779 
C          C       0.09921   0.43891   0.66779 
C          C       0.56109   0.66030   0.66779 
C          C       0.33970   0.90079   0.66779 
C          C       0.07648   0.36818   0.52599 
C          C       0.63182   0.70830   0.52599 
C          C       0.29170   0.92352   0.52599 
C          C       0.92352   0.63182   0.52599 
C          C       0.36818   0.29170   0.52599 
C          C       0.70830   0.07648   0.52599 
H          H       0.45773   0.61456   0.55066 
H          H       0.38544   0.84317   0.55066 
H          H       0.15683   0.54227   0.55066 
H          H       0.54227   0.38544   0.55066 
H          H       0.61456   0.15683   0.55066 
H          H       0.84317   0.45773   0.55066 
H          H       0.42718   0.65961   0.51272 
H          H       0.34039   0.76757   0.51272 
H          H       0.23243   0.57282   0.51272 
H          H       0.57282   0.34039   0.51272 
H          H       0.65961   0.23243   0.51272 
H          H       0.76757   0.42718   0.51272 
H          H       0.32296   0.55952   0.72303 
H          H       0.44048   0.76344   0.72303 
H          H       0.23656   0.67704   0.72303 
H          H       0.67704   0.44048   0.72303 
H          H       0.55952   0.23656   0.72303 
H          H       0.76344   0.32296   0.72303 
H          H       0.35219   0.51318   0.77692 
H          H       0.48682   0.83901   0.77692 
H          H       0.16099   0.64781   0.77692 
H          H       0.64781   0.48682   0.77692 
H          H       0.51318   0.16099   0.77692 
H          H       0.83901   0.35219   0.77692 
H          H       0.41162   0.69983   0.84892 
H          H       0.30017   0.71179   0.84892 
H          H       0.28821   0.58838   0.84892 
H          H       0.58838   0.30017   0.84892 
H          H       0.69983   0.28821   0.84892 
H          H       0.71179   0.41162   0.84892 
H          H       0.50196   0.90598   0.92028 
H          H       0.09402   0.59598   0.92028 
H          H       0.40402   0.49804   0.92028 
H          H       0.49804   0.09402   0.92028 
H          H       0.90598   0.40402   0.92028 
H          H       0.59598   0.50196   0.92028 
H          H       0.42221   0.46095   0.58502 
H          H       0.53905   0.96126   0.58502 
H          H       0.03874   0.57779   0.58502 
H          H       0.57779   0.53905   0.58502 
H          H       0.46095   0.03874   0.58502 
H          H       0.96126   0.42221   0.58502 
H          H       0.89699   0.50439   0.77504 
H          H       0.49561   0.39260   0.77504 
H          H       0.60740   0.10301   0.77504 
H          H       0.10301   0.49561   0.77504 
H          H       0.50439   0.60740   0.77504 
H          H       0.39260   0.89699   0.77504 
H          H       0.87022   0.55617   0.70952 
H          H       0.44383   0.31405   0.70952 
H          H       0.68595   0.12978   0.70952 
H          H       0.12978   0.44383   0.70952 
H          H       0.55617   0.68595   0.70952 
H          H       0.31405   0.87022   0.70952 
H          H       0.08074   0.35296   0.64343 
H          H       0.64704   0.72778   0.64343 
H          H       0.27222   0.91926   0.64343 
H          H       0.91926   0.64704   0.64343 
H          H       0.35296   0.27222   0.64343 
H          H       0.72778   0.08074   0.64343 
H          H       0.10539   0.38061   0.94385 
H          H       0.61939   0.72478   0.94385 
H          H       0.27522   0.89461   0.94385 
H          H       0.89461   0.61939   0.94385 
H          H       0.38061   0.27522   0.94385 
H          H       0.72478   0.10539   0.94385 
H          H       0.04884   0.34393   0.95110 
H          H       0.65607   0.70491   0.95110 
H          H       0.29509   0.95116   0.95110 
H          H       0.95116   0.65607   0.95110 
H          H       0.34393   0.29509   0.95110 
H          H       0.70491   0.04884   0.95110 
