data_crystal
 
_cell_length_a    36.21640
_cell_length_b    36.21640
_cell_length_c    7.54100
_cell_angle_alpha 90.00000
_cell_angle_beta  90.00000
_cell_angle_gamma 120.00000
 
_space_group_name_Hall 'P 1'
_space_group_name_H-M_alt  'P 1'
 
loop_
_symmetry_equiv_pos_as_xyz
 'x,y,z' 
 
loop_
_atom_site_label
_atom_site_type_symbol
_atom_site_fract_x
_atom_site_fract_y
_atom_site_fract_z
C          C       0.40410   0.55920   0.41976 
C          C       0.44080   0.84490   0.41976 
C          C       0.15510   0.59590   0.41976 
C          C       0.59590   0.44080   0.41976 
C          C       0.55920   0.15510   0.41976 
C          C       0.84490   0.40410   0.41976 
C          C       0.42930   0.60330   0.44761 
C          C       0.39670   0.82600   0.44761 
C          C       0.17400   0.57070   0.44761 
C          C       0.57070   0.39670   0.44761 
C          C       0.60330   0.17400   0.44761 
C          C       0.82600   0.42930   0.44761 
C          C       0.41240   0.63000   0.42027 
C          C       0.37000   0.78240   0.42027 
C          C       0.21760   0.58760   0.42027 
C          C       0.58760   0.37000   0.42027 
C          C       0.63000   0.21760   0.42027 
C          C       0.78240   0.41240   0.42027 
C          C       0.36980   0.61320   0.36667 
C          C       0.38680   0.75660   0.36667 
C          C       0.24340   0.63020   0.36667 
C          C       0.63020   0.38680   0.36667 
C          C       0.61320   0.24340   0.36667 
C          C       0.75660   0.36980   0.36667 
C          C       0.34490   0.56910   0.33519 
C          C       0.43090   0.77580   0.33519 
C          C       0.22420   0.65510   0.33519 
C          C       0.65510   0.43090   0.33519 
C          C       0.56910   0.22420   0.33519 
C          C       0.77580   0.34490   0.33519 
C          C       0.36200   0.54240   0.36083 
C          C       0.45760   0.81960   0.36083 
C          C       0.18040   0.63800   0.36083 
C          C       0.63800   0.45760   0.36083 
C          C       0.54240   0.18040   0.36083 
C          C       0.81960   0.36200   0.36083 
C          C       0.35090   0.64100   0.35314 
C          C       0.35900   0.70990   0.35314 
C          C       0.29010   0.64910   0.35314 
C          C       0.64910   0.35900   0.35314 
C          C       0.64100   0.29010   0.35314 
C          C       0.70990   0.35090   0.35314 
N          N       0.37620   0.68410   0.35357 
N          N       0.31590   0.69210   0.35357 
N          N       0.30790   0.62380   0.35357 
N          N       0.62380   0.31590   0.35357 
N          N       0.68410   0.30790   0.35357 
N          N       0.69210   0.37620   0.35357 
C          C       0.46990   0.89050   0.45814 
C          C       0.10950   0.57940   0.45814 
C          C       0.42060   0.53010   0.45814 
C          C       0.53010   0.10950   0.45814 
C          C       0.89050   0.42060   0.45814 
C          C       0.57940   0.46990   0.45814 
N          N       0.45480   0.91470   0.02821 
N          N       0.08530   0.54010   0.02821 
N          N       0.45990   0.54520   0.02821 
N          N       0.54520   0.08530   0.02821 
N          N       0.91470   0.45990   0.02821 
N          N       0.54010   0.45480   0.02821 
C          C       0.47740   0.95590   0.08482 
C          C       0.04410   0.52150   0.08482 
C          C       0.47850   0.52260   0.08482 
C          C       0.52260   0.04410   0.08482 
C          C       0.95590   0.47850   0.08482 
C          C       0.52150   0.47740   0.08482 
C          C       0.45590   0.47760   0.09484 
C          C       0.52240   0.97830   0.09484 
C          C       0.02170   0.54410   0.09484 
C          C       0.54410   0.52240   0.09484 
C          C       0.47760   0.02170   0.09484 
C          C       0.97830   0.45590   0.09484 
C          C       0.47780   0.45540   0.14627 
C          C       0.54460   0.02240   0.14627 
C          C       0.97760   0.52220   0.14627 
C          C       0.52220   0.54460   0.14627 
C          C       0.45540   0.97760   0.14627 
C          C       0.02240   0.47780   0.14627 
C          C       0.54690   0.59260   0.11655 
C          C       0.40740   0.95430   0.11655 
C          C       0.04570   0.45310   0.11655 
C          C       0.45310   0.40740   0.11655 
C          C       0.59260   0.04570   0.11655 
C          C       0.95430   0.54690   0.11655 
S          S       0.40370   0.38010   0.01772 
S          S       0.61990   0.02360   0.01772 
S          S       0.97640   0.59630   0.01772 
S          S       0.59630   0.61990   0.01772 
S          S       0.38010   0.97640   0.01772 
S          S       0.02360   0.40370   0.01772 
C          C       0.40330   0.33360   0.05915 
C          C       0.66640   0.06970   0.05915 
C          C       0.93030   0.59670   0.05915 
C          C       0.59670   0.66640   0.05915 
C          C       0.33360   0.93030   0.05915 
C          C       0.06970   0.40330   0.05915 
C          C       0.43900   0.33870   0.14599 
C          C       0.66130   0.10030   0.14599 
C          C       0.89970   0.56100   0.14599 
C          C       0.56100   0.66130   0.14599 
C          C       0.33870   0.89970   0.14599 
C          C       0.10030   0.43900   0.14599 
C          C       0.46700   0.38080   0.18153 
C          C       0.61920   0.08620   0.18153 
C          C       0.91380   0.53300   0.18153 
C          C       0.53300   0.61920   0.18153 
C          C       0.38080   0.91380   0.18153 
C          C       0.08620   0.46700   0.18153 
C          C       0.63260   0.70900   0.00554 
C          C       0.29100   0.92360   0.00554 
C          C       0.07640   0.36740   0.00554 
C          C       0.36740   0.29100   0.00554 
C          C       0.70900   0.07640   0.00554 
C          C       0.92360   0.63260   0.00554 
H          H       0.46180   0.61720   0.49370 
H          H       0.38280   0.84460   0.49370 
H          H       0.15540   0.53820   0.49370 
H          H       0.53820   0.38280   0.49370 
H          H       0.61720   0.15540   0.49370 
H          H       0.84460   0.46180   0.49370 
H          H       0.43240   0.66380   0.44664 
H          H       0.33620   0.76860   0.44664 
H          H       0.23140   0.56760   0.44664 
H          H       0.56760   0.33620   0.44664 
H          H       0.66380   0.23140   0.44664 
H          H       0.76860   0.43240   0.44664 
H          H       0.31210   0.55520   0.29244 
H          H       0.44480   0.75690   0.29244 
H          H       0.24310   0.68790   0.29244 
H          H       0.68790   0.44480   0.29244 
H          H       0.55520   0.24310   0.29244 
H          H       0.75690   0.31210   0.29244 
H          H       0.34200   0.50850   0.33784 
H          H       0.49150   0.83350   0.33784 
H          H       0.16650   0.65800   0.33784 
H          H       0.65800   0.49150   0.33784 
H          H       0.50850   0.16650   0.33784 
H          H       0.83350   0.34200   0.33784 
H          H       0.50350   0.90360   0.43088 
H          H       0.09640   0.59990   0.43088 
H          H       0.40010   0.49650   0.43088 
H          H       0.49650   0.09640   0.43088 
H          H       0.90360   0.40010   0.43088 
H          H       0.59990   0.50350   0.43088 
H          H       0.42180   0.46030   0.07994 
H          H       0.53970   0.96150   0.07994 
H          H       0.03850   0.57820   0.07994 
H          H       0.57820   0.53970   0.07994 
H          H       0.46030   0.03850   0.07994 
H          H       0.96150   0.42180   0.07994 
H          H       0.44420   0.31290   0.18468 
H          H       0.68710   0.13130   0.18468 
H          H       0.86870   0.55580   0.18468 
H          H       0.55580   0.68710   0.18468 
H          H       0.31290   0.86870   0.18468 
H          H       0.13130   0.44420   0.18468 
H          H       0.49640   0.39150   0.25396 
H          H       0.60850   0.10490   0.25396 
H          H       0.89510   0.50360   0.25396 
H          H       0.50360   0.60850   0.25396 
H          H       0.39150   0.89510   0.25396 
H          H       0.10490   0.49640   0.25396 
H          H       0.62030   0.72560   0.42110 
H          H       0.27440   0.89470   0.42110 
H          H       0.10530   0.37970   0.42110 
H          H       0.37970   0.27440   0.42110 
H          H       0.72560   0.10530   0.42110 
H          H       0.89470   0.62030   0.42110 
H          H       0.65690   0.70530   0.43049 
H          H       0.29470   0.95160   0.43049 
H          H       0.04840   0.34310   0.43049 
H          H       0.34310   0.29470   0.43049 
H          H       0.70530   0.04840   0.43049 
H          H       0.95160   0.65690   0.43049 
H          H       0.64790   0.72880   0.12435 
H          H       0.27120   0.91910   0.12435 
H          H       0.08090   0.35210   0.12435 
H          H       0.35210   0.27120   0.12435 
H          H       0.72880   0.08090   0.12435 
H          H       0.91910   0.64790   0.12435 
C          C       0.40410   0.55920   0.91977 
C          C       0.44080   0.84490   0.91977 
C          C       0.15510   0.59590   0.91977 
C          C       0.59590   0.44080   0.91977 
C          C       0.55920   0.15510   0.91977 
C          C       0.84490   0.40410   0.91977 
C          C       0.42930   0.60330   0.94761 
C          C       0.39670   0.82600   0.94761 
C          C       0.17400   0.57070   0.94761 
C          C       0.57070   0.39670   0.94761 
C          C       0.60330   0.17400   0.94761 
C          C       0.82600   0.42930   0.94761 
C          C       0.41240   0.63000   0.92027 
C          C       0.37000   0.78240   0.92027 
C          C       0.21760   0.58760   0.92027 
C          C       0.58760   0.37000   0.92027 
C          C       0.63000   0.21760   0.92027 
C          C       0.78240   0.41240   0.92027 
C          C       0.36980   0.61320   0.86667 
C          C       0.38680   0.75660   0.86667 
C          C       0.24340   0.63020   0.86667 
C          C       0.63020   0.38680   0.86667 
C          C       0.61320   0.24340   0.86667 
C          C       0.75660   0.36980   0.86667 
C          C       0.34490   0.56910   0.83519 
C          C       0.43090   0.77580   0.83519 
C          C       0.22420   0.65510   0.83519 
C          C       0.65510   0.43090   0.83519 
C          C       0.56910   0.22420   0.83519 
C          C       0.77580   0.34490   0.83519 
C          C       0.36200   0.54240   0.86083 
C          C       0.45760   0.81960   0.86083 
C          C       0.18040   0.63800   0.86083 
C          C       0.63800   0.45760   0.86083 
C          C       0.54240   0.18040   0.86083 
C          C       0.81960   0.36200   0.86083 
C          C       0.35090   0.64100   0.85314 
C          C       0.35900   0.70990   0.85314 
C          C       0.29010   0.64910   0.85314 
C          C       0.64910   0.35900   0.85314 
C          C       0.64100   0.29010   0.85314 
C          C       0.70990   0.35090   0.85314 
N          N       0.37620   0.68410   0.85357 
N          N       0.31590   0.69210   0.85357 
N          N       0.30790   0.62380   0.85357 
N          N       0.62380   0.31590   0.85357 
N          N       0.68410   0.30790   0.85357 
N          N       0.69210   0.37620   0.85357 
C          C       0.46990   0.89050   0.95814 
C          C       0.10950   0.57940   0.95814 
C          C       0.42060   0.53010   0.95814 
C          C       0.53010   0.10950   0.95814 
C          C       0.89050   0.42060   0.95814 
C          C       0.57940   0.46990   0.95814 
N          N       0.45480   0.91470   0.52821 
N          N       0.08530   0.54010   0.52821 
N          N       0.45990   0.54520   0.52821 
N          N       0.54520   0.08530   0.52821 
N          N       0.91470   0.45990   0.52821 
N          N       0.54010   0.45480   0.52821 
C          C       0.47740   0.95590   0.58482 
C          C       0.04410   0.52150   0.58482 
C          C       0.47850   0.52260   0.58482 
C          C       0.52260   0.04410   0.58482 
C          C       0.95590   0.47850   0.58482 
C          C       0.52150   0.47740   0.58482 
C          C       0.45590   0.47760   0.59484 
C          C       0.52240   0.97830   0.59484 
C          C       0.02170   0.54410   0.59484 
C          C       0.54410   0.52240   0.59484 
C          C       0.47760   0.02170   0.59484 
C          C       0.97830   0.45590   0.59484 
C          C       0.47780   0.45540   0.64627 
C          C       0.54460   0.02240   0.64627 
C          C       0.97760   0.52220   0.64627 
C          C       0.52220   0.54460   0.64627 
C          C       0.45540   0.97760   0.64627 
C          C       0.02240   0.47780   0.64627 
C          C       0.54690   0.59260   0.61656 
C          C       0.40740   0.95430   0.61656 
C          C       0.04570   0.45310   0.61656 
C          C       0.45310   0.40740   0.61656 
C          C       0.59260   0.04570   0.61656 
C          C       0.95430   0.54690   0.61656 
S          S       0.40370   0.38010   0.51772 
S          S       0.61990   0.02360   0.51772 
S          S       0.97640   0.59630   0.51772 
S          S       0.59630   0.61990   0.51772 
S          S       0.38010   0.97640   0.51772 
S          S       0.02360   0.40370   0.51772 
C          C       0.40330   0.33360   0.55916 
C          C       0.66640   0.06970   0.55916 
C          C       0.93030   0.59670   0.55916 
C          C       0.59670   0.66640   0.55916 
C          C       0.33360   0.93030   0.55916 
C          C       0.06970   0.40330   0.55916 
C          C       0.43900   0.33870   0.64599 
C          C       0.66130   0.10030   0.64599 
C          C       0.89970   0.56100   0.64599 
C          C       0.56100   0.66130   0.64599 
C          C       0.33870   0.89970   0.64599 
C          C       0.10030   0.43900   0.64599 
C          C       0.46700   0.38080   0.68153 
C          C       0.61920   0.08620   0.68153 
C          C       0.91380   0.53300   0.68153 
C          C       0.53300   0.61920   0.68153 
C          C       0.38080   0.91380   0.68153 
C          C       0.08620   0.46700   0.68153 
C          C       0.63260   0.70900   0.50554 
C          C       0.29100   0.92360   0.50554 
C          C       0.07640   0.36740   0.50554 
C          C       0.36740   0.29100   0.50554 
C          C       0.70900   0.07640   0.50554 
C          C       0.92360   0.63260   0.50554 
H          H       0.46180   0.61720   0.99370 
H          H       0.38280   0.84460   0.99370 
H          H       0.15540   0.53820   0.99370 
H          H       0.53820   0.38280   0.99370 
H          H       0.61720   0.15540   0.99370 
H          H       0.84460   0.46180   0.99370 
H          H       0.43240   0.66380   0.94664 
H          H       0.33620   0.76860   0.94664 
H          H       0.23140   0.56760   0.94664 
H          H       0.56760   0.33620   0.94664 
H          H       0.66380   0.23140   0.94664 
H          H       0.76860   0.43240   0.94664 
H          H       0.31210   0.55520   0.79244 
H          H       0.44480   0.75690   0.79244 
H          H       0.24310   0.68790   0.79244 
H          H       0.68790   0.44480   0.79244 
H          H       0.55520   0.24310   0.79244 
H          H       0.75690   0.31210   0.79244 
H          H       0.34200   0.50850   0.83784 
H          H       0.49150   0.83350   0.83784 
H          H       0.16650   0.65800   0.83784 
H          H       0.65800   0.49150   0.83784 
H          H       0.50850   0.16650   0.83784 
H          H       0.83350   0.34200   0.83784 
H          H       0.50350   0.90360   0.93088 
H          H       0.09640   0.59990   0.93088 
H          H       0.40010   0.49650   0.93088 
H          H       0.49650   0.09640   0.93088 
H          H       0.90360   0.40010   0.93088 
H          H       0.59990   0.50350   0.93088 
H          H       0.42180   0.46030   0.57994 
H          H       0.53970   0.96150   0.57994 
H          H       0.03850   0.57820   0.57994 
H          H       0.57820   0.53970   0.57994 
H          H       0.46030   0.03850   0.57994 
H          H       0.96150   0.42180   0.57994 
H          H       0.44420   0.31290   0.68468 
H          H       0.68710   0.13130   0.68468 
H          H       0.86870   0.55580   0.68468 
H          H       0.55580   0.68710   0.68468 
H          H       0.31290   0.86870   0.68468 
H          H       0.13130   0.44420   0.68468 
H          H       0.49640   0.39150   0.75396 
H          H       0.60850   0.10490   0.75396 
H          H       0.89510   0.50360   0.75396 
H          H       0.50360   0.60850   0.75396 
H          H       0.39150   0.89510   0.75396 
H          H       0.10490   0.49640   0.75396 
H          H       0.62030   0.72560   0.92109 
H          H       0.27440   0.89470   0.92109 
H          H       0.10530   0.37970   0.92109 
H          H       0.37970   0.27440   0.92109 
H          H       0.72560   0.10530   0.92109 
H          H       0.89470   0.62030   0.92109 
H          H       0.65690   0.70530   0.93049 
H          H       0.29470   0.95160   0.93049 
H          H       0.04840   0.34310   0.93049 
H          H       0.34310   0.29470   0.93049 
H          H       0.70530   0.04840   0.93049 
H          H       0.95160   0.65690   0.93049 
H          H       0.64790   0.72880   0.62435 
H          H       0.27120   0.91910   0.62435 
H          H       0.08090   0.35210   0.62435 
H          H       0.35210   0.27120   0.62435 
H          H       0.72880   0.08090   0.62435 
H          H       0.91910   0.64790   0.62435 
