data_crystal

_cell_length_a    36.96110
_cell_length_b    36.96110
_cell_length_c    8.10140
_cell_angle_alpha 90.00000
_cell_angle_beta  90.00000
_cell_angle_gamma 120.00000

_space_group_name_Hall 'P 1'
_space_group_name_H-M_alt  'P 1'

loop_
_symmetry_equiv_pos_as_xyz
'x,y,z' 

loop_
_atom_site_label
_atom_site_type_symbol
_atom_site_fract_x
_atom_site_fract_y
_atom_site_fract_z
C          C       0.29089   0.64616   0.24996 
C          C       0.35384   0.64473   0.24996 
C          C       0.35527   0.70911   0.24996 
C          C       0.70911   0.35384   0.24996 
C          C       0.64616   0.35527   0.24996 
C          C       0.64473   0.29089   0.24996 
C          C       0.58404   0.60600   0.39800 
C          C       0.39400   0.97804   0.39800 
C          C       0.02196   0.41596   0.39800 
C          C       0.41596   0.39400   0.39800 
C          C       0.60600   0.02196   0.39800 
C          C       0.97804   0.58404   0.39800 
N          N       0.31152   0.62444   0.24957 
N          N       0.37556   0.68708   0.24957 
N          N       0.31292   0.68848   0.24957 
N          N       0.68848   0.37556   0.24957 
N          N       0.62444   0.31292   0.24957 
N          N       0.68708   0.31152   0.24957 
H          H       0.32709   0.56555   0.35850 
H          H       0.43445   0.76154   0.35850 
H          H       0.23846   0.67291   0.35850 
H          H       0.67291   0.43445   0.35850 
H          H       0.56555   0.23846   0.35850 
H          H       0.76154   0.32709   0.35850 
C          C       0.24477   0.62394   0.23968 
C          C       0.37606   0.62083   0.23968 
C          C       0.37917   0.75523   0.23968 
C          C       0.75523   0.37606   0.23968 
C          C       0.62394   0.37917   0.23968 
C          C       0.62083   0.24477   0.23968 
H          H       0.36208   0.52457   0.32571 
H          H       0.47543   0.83751   0.32571 
H          H       0.16249   0.63792   0.32571 
H          H       0.63792   0.47543   0.32571 
H          H       0.52457   0.16249   0.32571 
H          H       0.83751   0.36208   0.32571 
C          C       0.35736   0.57962   0.29875 
C          C       0.42038   0.77774   0.29875 
C          C       0.22226   0.64264   0.29875 
C          C       0.64264   0.42038   0.29875 
C          C       0.57962   0.22226   0.29875 
C          C       0.77774   0.35736   0.29875 
H          H       0.46499   0.62847   0.08096 
H          H       0.37153   0.83652   0.08096 
H          H       0.16348   0.53501   0.08096 
H          H       0.53501   0.37153   0.08096 
H          H       0.62847   0.16348   0.08096 
H          H       0.83652   0.46499   0.08096 
C          C       0.37752   0.55633   0.28092 
C          C       0.44367   0.82119   0.28092 
C          C       0.17881   0.62248   0.28092 
C          C       0.62248   0.44367   0.28092 
C          C       0.55633   0.17881   0.28092 
C          C       0.82119   0.37752   0.28092 
H          H       0.43021   0.66994   0.11520 
H          H       0.33006   0.76027   0.11520 
H          H       0.23973   0.56979   0.11520 
H          H       0.56979   0.33006   0.11520 
H          H       0.66994   0.23973   0.11520 
H          H       0.76027   0.43021   0.11520 
C          C       0.41650   0.57370   0.20170 
C          C       0.42630   0.84280   0.20170 
C          C       0.15720   0.58350   0.20170 
C          C       0.58350   0.42630   0.20170 
C          C       0.57370   0.15720   0.20170 
C          C       0.84280   0.41650   0.20170 
H          H       0.49268   0.42990   0.28791 
H          H       0.57010   0.06278   0.28791 
H          H       0.93722   0.50732   0.28791 
H          H       0.50732   0.57010   0.28791 
H          H       0.42990   0.93722   0.28791 
H          H       0.06278   0.49268   0.28791 
C          C       0.43522   0.61487   0.14385 
C          C       0.38513   0.82035   0.14385 
C          C       0.17965   0.56478   0.14385 
C          C       0.56478   0.38513   0.14385 
C          C       0.61487   0.17965   0.14385 
C          C       0.82035   0.43522   0.14385 
H          H       0.57343   0.62392   0.32198 
H          H       0.37608   0.94951   0.32198 
H          H       0.05049   0.42657   0.32198 
H          H       0.42657   0.37608   0.32198 
H          H       0.62392   0.05049   0.32198 
H          H       0.94951   0.57343   0.32198 
C          C       0.41547   0.63844   0.16393 
C          C       0.36156   0.77703   0.16393 
C          C       0.22297   0.58453   0.16393 
C          C       0.58453   0.36156   0.16393 
C          C       0.63844   0.22297   0.16393 
C          C       0.77703   0.41547   0.16393 
H          H       0.61750   0.62711   0.42857 
H          H       0.37289   0.99039   0.42857 
H          H       0.00961   0.38250   0.42857 
H          H       0.38250   0.37289   0.42857 
H          H       0.62711   0.00961   0.42857 
H          H       0.99039   0.61750   0.42857 
N          N       0.43685   0.54982   0.17145 
N          N       0.45018   0.88703   0.17145 
N          N       0.11297   0.56315   0.17145 
N          N       0.56315   0.45018   0.17145 
N          N       0.54982   0.11297   0.17145 
N          N       0.88703   0.43685   0.17145 
H          H       0.56659   0.59608   0.01643 
H          H       0.40392   0.97051   0.01643 
H          H       0.02949   0.43341   0.01643 
H          H       0.43341   0.40392   0.01643 
H          H       0.59608   0.02949   0.01643 
H          H       0.97051   0.56659   0.01643 
C          C       0.42589   0.51011   0.25458 
C          C       0.48989   0.91578   0.25458 
C          C       0.08422   0.57411   0.25458 
C          C       0.57411   0.48989   0.25458 
C          C       0.51011   0.08422   0.25458 
C          C       0.91578   0.42589   0.25458 
H          H       0.45895   0.56018   0.07614 
H          H       0.43982   0.89877   0.07614 
H          H       0.10123   0.54105   0.07614 
H          H       0.54105   0.43982   0.07614 
H          H       0.56018   0.10123   0.07614 
H          H       0.89877   0.45895   0.07614 
C          C       0.46390   0.50413   0.26911 
C          C       0.49587   0.95977   0.26911 
C          C       0.04023   0.53610   0.26911 
C          C       0.53610   0.49587   0.26911 
C          C       0.50413   0.04023   0.26911 
C          C       0.95977   0.46390   0.26911 
C          C       0.39029   0.47548   0.16725 
C          C       0.52452   0.91481   0.16725 
C          C       0.08519   0.60971   0.16725 
C          C       0.60971   0.52452   0.16725 
C          C       0.47548   0.08519   0.16725 
C          C       0.91481   0.39029   0.16725 
C          C       0.45988   0.46423   0.28799 
C          C       0.53577   0.99565   0.28799 
C          C       0.00435   0.54012   0.28799 
C          C       0.54012   0.53577   0.28799 
C          C       0.46423   0.00435   0.28799 
C          C       0.99565   0.45988   0.28799 
N          N       0.36209   0.44877   0.09854 
N          N       0.55123   0.91332   0.09854 
N          N       0.08668   0.63791   0.09854 
N          N       0.63791   0.55123   0.09854 
N          N       0.44877   0.08668   0.09854 
N          N       0.91332   0.36209   0.09854 
C          C       0.49590   0.46051   0.28267 
C          C       0.53949   0.03539   0.28267 
C          C       0.96461   0.50410   0.28267 
C          C       0.50410   0.53949   0.28267 
C          C       0.46051   0.96461   0.28267 
C          C       0.03539   0.49590   0.28267 
H          H       0.41518   0.51041   0.38108 
H          H       0.48959   0.90477   0.38108 
H          H       0.09523   0.58482   0.38108 
H          H       0.58482   0.48959   0.38108 
H          H       0.51041   0.09523   0.38108 
H          H       0.90477   0.41518   0.38108 
O          O       0.41976   0.42916   0.30897 
O          O       0.57084   0.99060   0.30897 
O          O       0.00940   0.58024   0.30897 
O          O       0.58024   0.57084   0.30897 
O          O       0.42916   0.00940   0.30897 
O          O       0.99060   0.41976   0.30897 
C          C       0.29089   0.64616   0.74996 
C          C       0.35384   0.64473   0.74996 
C          C       0.35527   0.70911   0.74996 
C          C       0.70911   0.35384   0.74996 
C          C       0.64616   0.35527   0.74996 
C          C       0.64473   0.29089   0.74996 
C          C       0.58404   0.60600   0.89799 
C          C       0.39400   0.97804   0.89799 
C          C       0.02196   0.41596   0.89799 
C          C       0.41596   0.39400   0.89799 
C          C       0.60600   0.02196   0.89799 
C          C       0.97804   0.58404   0.89799 
N          N       0.31152   0.62444   0.74957 
N          N       0.37556   0.68708   0.74957 
N          N       0.31292   0.68848   0.74957 
N          N       0.68848   0.37556   0.74957 
N          N       0.62444   0.31292   0.74957 
N          N       0.68708   0.31152   0.74957 
H          H       0.32709   0.56555   0.85850 
H          H       0.43445   0.76154   0.85850 
H          H       0.23846   0.67291   0.85850 
H          H       0.67291   0.43445   0.85850 
H          H       0.56555   0.23846   0.85850 
H          H       0.76154   0.32709   0.85850 
C          C       0.24477   0.62394   0.73968 
C          C       0.37606   0.62083   0.73968 
C          C       0.37917   0.75523   0.73968 
C          C       0.75523   0.37606   0.73968 
C          C       0.62394   0.37917   0.73968 
C          C       0.62083   0.24477   0.73968 
H          H       0.36208   0.52457   0.82571 
H          H       0.47543   0.83751   0.82571 
H          H       0.16249   0.63792   0.82571 
H          H       0.63792   0.47543   0.82571 
H          H       0.52457   0.16249   0.82571 
H          H       0.83751   0.36208   0.82571 
C          C       0.35736   0.57962   0.79875 
C          C       0.42038   0.77774   0.79875 
C          C       0.22226   0.64264   0.79875 
C          C       0.64264   0.42038   0.79875 
C          C       0.57962   0.22226   0.79875 
C          C       0.77774   0.35736   0.79875 
H          H       0.46499   0.62847   0.58096 
H          H       0.37153   0.83652   0.58096 
H          H       0.16348   0.53501   0.58096 
H          H       0.53501   0.37153   0.58096 
H          H       0.62847   0.16348   0.58096 
H          H       0.83652   0.46499   0.58096 
C          C       0.37752   0.55633   0.78092 
C          C       0.44367   0.82119   0.78092 
C          C       0.17881   0.62248   0.78092 
C          C       0.62248   0.44367   0.78092 
C          C       0.55633   0.17881   0.78092 
C          C       0.82119   0.37752   0.78092 
H          H       0.43021   0.66994   0.61520 
H          H       0.33006   0.76027   0.61520 
H          H       0.23973   0.56979   0.61520 
H          H       0.56979   0.33006   0.61520 
H          H       0.66994   0.23973   0.61520 
H          H       0.76027   0.43021   0.61520 
C          C       0.41650   0.57370   0.70170 
C          C       0.42630   0.84280   0.70170 
C          C       0.15720   0.58350   0.70170 
C          C       0.58350   0.42630   0.70170 
C          C       0.57370   0.15720   0.70170 
C          C       0.84280   0.41650   0.70170 
H          H       0.49268   0.42990   0.78792 
H          H       0.57010   0.06278   0.78792 
H          H       0.93722   0.50732   0.78792 
H          H       0.50732   0.57010   0.78792 
H          H       0.42990   0.93722   0.78792 
H          H       0.06278   0.49268   0.78792 
C          C       0.43522   0.61487   0.64385 
C          C       0.38513   0.82035   0.64385 
C          C       0.17965   0.56478   0.64385 
C          C       0.56478   0.38513   0.64385 
C          C       0.61487   0.17965   0.64385 
C          C       0.82035   0.43522   0.64385 
H          H       0.57343   0.62392   0.82198 
H          H       0.37608   0.94951   0.82198 
H          H       0.05049   0.42657   0.82198 
H          H       0.42657   0.37608   0.82198 
H          H       0.62392   0.05049   0.82198 
H          H       0.94951   0.57343   0.82198 
C          C       0.41547   0.63844   0.66394 
C          C       0.36156   0.77703   0.66394 
C          C       0.22297   0.58453   0.66394 
C          C       0.58453   0.36156   0.66394 
C          C       0.63844   0.22297   0.66394 
C          C       0.77703   0.41547   0.66394 
H          H       0.61750   0.62711   0.92857 
H          H       0.37289   0.99039   0.92857 
H          H       0.00961   0.38250   0.92857 
H          H       0.38250   0.37289   0.92857 
H          H       0.62711   0.00961   0.92857 
H          H       0.99039   0.61750   0.92857 
N          N       0.43685   0.54982   0.67146 
N          N       0.45018   0.88703   0.67146 
N          N       0.11297   0.56315   0.67146 
N          N       0.56315   0.45018   0.67146 
N          N       0.54982   0.11297   0.67146 
N          N       0.88703   0.43685   0.67146 
H          H       0.56659   0.59608   0.51643 
H          H       0.40392   0.97051   0.51643 
H          H       0.02949   0.43341   0.51643 
H          H       0.43341   0.40392   0.51643 
H          H       0.59608   0.02949   0.51643 
H          H       0.97051   0.56659   0.51643 
C          C       0.42589   0.51011   0.75458 
C          C       0.48989   0.91578   0.75458 
C          C       0.08422   0.57411   0.75458 
C          C       0.57411   0.48989   0.75458 
C          C       0.51011   0.08422   0.75458 
C          C       0.91578   0.42589   0.75458 
H          H       0.45895   0.56018   0.57614 
H          H       0.43982   0.89877   0.57614 
H          H       0.10123   0.54105   0.57614 
H          H       0.54105   0.43982   0.57614 
H          H       0.56018   0.10123   0.57614 
H          H       0.89877   0.45895   0.57614 
C          C       0.46390   0.50413   0.76911 
C          C       0.49587   0.95977   0.76911 
C          C       0.04023   0.53610   0.76911 
C          C       0.53610   0.49587   0.76911 
C          C       0.50413   0.04023   0.76911 
C          C       0.95977   0.46390   0.76911 
C          C       0.39029   0.47548   0.66725 
C          C       0.52452   0.91481   0.66725 
C          C       0.08519   0.60971   0.66725 
C          C       0.60971   0.52452   0.66725 
C          C       0.47548   0.08519   0.66725 
C          C       0.91481   0.39029   0.66725 
C          C       0.45988   0.46423   0.78799 
C          C       0.53577   0.99565   0.78799 
C          C       0.00435   0.54012   0.78799 
C          C       0.54012   0.53577   0.78799 
C          C       0.46423   0.00435   0.78799 
C          C       0.99565   0.45988   0.78799 
N          N       0.36209   0.44877   0.59854 
N          N       0.55123   0.91332   0.59854 
N          N       0.08668   0.63791   0.59854 
N          N       0.63791   0.55123   0.59854 
N          N       0.44877   0.08668   0.59854 
N          N       0.91332   0.36209   0.59854 
C          C       0.49590   0.46051   0.78267 
C          C       0.53949   0.03539   0.78267 
C          C       0.96461   0.50410   0.78267 
C          C       0.50410   0.53949   0.78267 
C          C       0.46051   0.96461   0.78267 
C          C       0.03539   0.49590   0.78267 
H          H       0.41518   0.51041   0.88108 
H          H       0.48959   0.90477   0.88108 
H          H       0.09523   0.58482   0.88108 
H          H       0.58482   0.48959   0.88108 
H          H       0.51041   0.09523   0.88108 
H          H       0.90477   0.41518   0.88108 
O          O       0.41976   0.42916   0.80897 
O          O       0.57084   0.99060   0.80897 
O          O       0.00940   0.58024   0.80897 
O          O       0.58024   0.57084   0.80897 
O          O       0.42916   0.00940   0.80897 
O          O       0.99060   0.41976   0.80897 
