data_crystal
 
_cell_length_a    36.72740
_cell_length_b    36.72740
_cell_length_c    7.68740
_cell_angle_alpha 90.00000
_cell_angle_beta  90.00000
_cell_angle_gamma 120.00000
 
_space_group_name_Hall 'P 1'
_space_group_name_H-M_alt  'P 1'
 
loop_
_symmetry_equiv_pos_as_xyz
 'x,y,z' 
 
loop_
_atom_site_label
_atom_site_type_symbol
_atom_site_fract_x
_atom_site_fract_y
_atom_site_fract_z
C          C       0.35712   0.64782   0.35147 
C          C       0.35218   0.70930   0.35147 
C          C       0.29070   0.64288   0.35147 
C          C       0.64288   0.35218   0.35147 
C          C       0.64782   0.29070   0.35147 
C          C       0.70930   0.35712   0.35147 
H          H       0.44047   0.68126   0.42577 
H          H       0.31874   0.75921   0.42577 
H          H       0.24079   0.55953   0.42577 
H          H       0.55953   0.31874   0.42577 
H          H       0.68126   0.24079   0.42577 
H          H       0.75921   0.44047   0.42577 
C          C       0.37570   0.69028   0.35112 
C          C       0.30972   0.68542   0.35112 
C          C       0.31458   0.62430   0.35112 
C          C       0.62430   0.30972   0.35112 
C          C       0.69028   0.31458   0.35112 
C          C       0.68542   0.37570   0.35112 
C          C       0.40046   0.51001   0.14820 
C          C       0.48999   0.89045   0.14820 
C          C       0.10955   0.59954   0.14820 
C          C       0.59954   0.48999   0.14820 
C          C       0.51001   0.10955   0.14820 
C          C       0.89045   0.40046   0.14820 
C          C       0.38297   0.62736   0.33561 
C          C       0.37264   0.75561   0.33561 
C          C       0.24439   0.61703   0.33561 
C          C       0.61703   0.37264   0.33561 
C          C       0.62736   0.24439   0.33561 
C          C       0.75561   0.38297   0.33561 
H          H       0.47396   0.42368   0.20019 
H          H       0.57632   0.05028   0.20019 
H          H       0.94972   0.52604   0.20019 
H          H       0.52604   0.57632   0.20019 
H          H       0.42368   0.94972   0.20019 
H          H       0.05028   0.47396   0.20019 
C          C       0.36483   0.58595   0.27293 
C          C       0.41405   0.77888   0.27293 
C          C       0.22112   0.63517   0.27293 
C          C       0.63517   0.41405   0.27293 
C          C       0.58595   0.22112   0.27293 
C          C       0.77888   0.36483   0.27293 
H          H       0.41916   0.40811   0.44194 
H          H       0.59189   0.01105   0.44194 
H          H       0.98895   0.58084   0.44194 
H          H       0.58084   0.59189   0.44194 
H          H       0.40811   0.98895   0.44194 
H          H       0.01105   0.41916   0.44194 
C          C       0.38919   0.56658   0.24523 
C          C       0.43342   0.82261   0.24523 
C          C       0.17739   0.61081   0.24523 
C          C       0.61081   0.43342   0.24523 
C          C       0.56658   0.17739   0.24523 
C          C       0.82261   0.38919   0.24523 
H          H       0.40310   0.38176   0.23212 
H          H       0.61824   0.02134   0.23212 
H          H       0.97866   0.59690   0.23212 
H          H       0.59690   0.61824   0.23212 
H          H       0.38176   0.97866   0.23212 
H          H       0.02134   0.40310   0.23212 
C          C       0.43248   0.58958   0.28824 
C          C       0.41042   0.84290   0.28824 
C          C       0.15710   0.56752   0.28824 
C          C       0.56752   0.41042   0.28824 
C          C       0.58958   0.15710   0.28824 
C          C       0.84290   0.43248   0.28824 
H          H       0.36692   0.38935   0.36239 
H          H       0.61065   0.97757   0.36239 
H          H       0.02243   0.63308   0.36239 
H          H       0.63308   0.61065   0.36239 
H          H       0.38935   0.02243   0.36239 
H          H       0.97757   0.36692   0.36239 
C          C       0.45038   0.63043   0.35374 
C          C       0.36957   0.81995   0.35374 
C          C       0.18005   0.54962   0.35374 
C          C       0.54962   0.36957   0.35374 
C          C       0.63043   0.18005   0.35374 
C          C       0.81995   0.45038   0.35374 
C          C       0.32669   0.49452   0.15524 
C          C       0.50548   0.83217   0.15524 
C          C       0.16783   0.67331   0.15524 
C          C       0.67331   0.50548   0.15524 
C          C       0.49452   0.16783   0.15524 
C          C       0.83217   0.32669   0.15524 
C          C       0.42598   0.64944   0.37576 
C          C       0.35056   0.77654   0.37576 
C          C       0.22346   0.57402   0.37576 
C          C       0.57402   0.35056   0.37576 
C          C       0.64944   0.22346   0.37576 
C          C       0.77654   0.42598   0.37576 
C          C       0.29978   0.50442   0.06236 
C          C       0.49558   0.79536   0.06236 
C          C       0.20464   0.70022   0.06236 
C          C       0.70022   0.49558   0.06236 
C          C       0.50442   0.20464   0.06236 
C          C       0.79536   0.29978   0.06236 
N          N       0.45696   0.57183   0.27081 
N          N       0.42817   0.88513   0.27081 
N          N       0.11487   0.54304   0.27081 
N          N       0.54304   0.42817   0.27081 
N          N       0.57183   0.11487   0.27081 
N          N       0.88513   0.45696   0.27081 
C          C       0.25701   0.47507   0.04518 
C          C       0.52493   0.78194   0.04518 
C          C       0.21806   0.74299   0.04518 
C          C       0.74299   0.52493   0.04518 
C          C       0.47507   0.21806   0.04518 
C          C       0.78194   0.25701   0.04518 
C          C       0.44228   0.53257   0.20539 
C          C       0.46743   0.90971   0.20539 
C          C       0.09029   0.55772   0.20539 
C          C       0.55772   0.46743   0.20539 
C          C       0.53257   0.09029   0.20539 
C          C       0.90971   0.44228   0.20539 
C          C       0.24069   0.43492   0.11596 
C          C       0.56508   0.80577   0.11596 
C          C       0.19423   0.75931   0.11596 
C          C       0.75931   0.56508   0.11596 
C          C       0.43492   0.19423   0.11596 
C          C       0.80577   0.24069   0.11596 
C          C       0.47109   0.51491   0.20049 
C          C       0.48509   0.95618   0.20049 
C          C       0.04382   0.52891   0.20049 
C          C       0.52891   0.48509   0.20049 
C          C       0.51491   0.04382   0.20049 
C          C       0.95618   0.47109   0.20049 
C          C       0.26714   0.42409   0.20417 
C          C       0.57591   0.84305   0.20417 
C          C       0.15695   0.73286   0.20417 
C          C       0.73286   0.57591   0.20417 
C          C       0.42409   0.15695   0.20417 
C          C       0.84305   0.26714   0.20417 
C          C       0.45624   0.47130   0.21270 
C          C       0.52870   0.98494   0.21270 
C          C       0.01506   0.54376   0.21270 
C          C       0.54376   0.52870   0.21270 
C          C       0.47130   0.01506   0.21270 
C          C       0.98494   0.45624   0.21270 
C          C       0.30976   0.45368   0.22451 
C          C       0.54632   0.85608   0.22451 
C          C       0.14392   0.69024   0.22451 
C          C       0.69024   0.54632   0.22451 
C          C       0.45368   0.14392   0.22451 
C          C       0.85608   0.30976   0.22451 
C          C       0.48525   0.45701   0.20236 
C          C       0.54299   0.02824   0.20236 
C          C       0.97176   0.51475   0.20236 
C          C       0.51475   0.54299   0.20236 
C          C       0.45701   0.97176   0.20236 
C          C       0.02824   0.48525   0.20236 
H          H       0.38903   0.48022   0.08268 
H          H       0.51978   0.90881   0.08268 
H          H       0.09119   0.61097   0.08268 
H          H       0.61097   0.51978   0.08268 
H          H       0.48022   0.09119   0.08268 
H          H       0.90881   0.38903   0.08268 
O          O       0.41295   0.44332   0.24087 
O          O       0.55668   0.96963   0.24087 
O          O       0.03037   0.58705   0.24087 
O          O       0.58705   0.55668   0.24087 
O          O       0.44332   0.03037   0.24087 
O          O       0.96963   0.41295   0.24087 
H          H       0.31164   0.53461   0.00183 
H          H       0.46539   0.77703   0.00183 
H          H       0.22297   0.68836   0.00183 
H          H       0.68836   0.46539   0.00183 
H          H       0.53461   0.22297   0.00183 
H          H       0.77703   0.31164   0.00183 
C          C       0.40038   0.40379   0.32273 
C          C       0.59621   0.99659   0.32273 
C          C       0.00341   0.59962   0.32273 
C          C       0.59962   0.59621   0.32273 
C          C       0.40379   0.00341   0.32273 
C          C       0.99659   0.40038   0.32273 
H          H       0.23670   0.48323   0.47361 
H          H       0.51677   0.75347   0.47361 
H          H       0.24653   0.76330   0.47361 
H          H       0.76330   0.51677   0.47361 
H          H       0.48323   0.24653   0.47361 
H          H       0.75347   0.23670   0.47361 
H          H       0.33175   0.56978   0.24539 
H          H       0.43022   0.76197   0.24539 
H          H       0.23803   0.66825   0.24539 
H          H       0.66825   0.43022   0.24539 
H          H       0.56978   0.23803   0.24539 
H          H       0.76197   0.33175   0.24539 
H          H       0.20765   0.41209   0.10120 
H          H       0.58791   0.79556   0.10120 
H          H       0.20444   0.79235   0.10120 
H          H       0.79235   0.58791   0.10120 
H          H       0.41209   0.20444   0.10120 
H          H       0.79556   0.20765   0.10120 
C          C       0.37256   0.52508   0.17839 
C          C       0.47492   0.84748   0.17839 
C          C       0.15252   0.62744   0.17839 
C          C       0.62744   0.47492   0.17839 
C          C       0.52508   0.15252   0.17839 
C          C       0.84748   0.37256   0.17839 
H          H       0.25451   0.39298   0.25954 
H          H       0.60702   0.86153   0.25954 
H          H       0.13847   0.74549   0.25954 
H          H       0.74549   0.60702   0.25954 
H          H       0.39298   0.13847   0.25954 
H          H       0.86153   0.25451   0.25954 
H          H       0.48339   0.64734   0.38773 
H          H       0.35266   0.83605   0.38773 
H          H       0.16395   0.51661   0.38773 
H          H       0.51661   0.35266   0.38773 
H          H       0.64734   0.16395   0.38773 
H          H       0.83605   0.48339   0.38773 
H          H       0.32952   0.44495   0.29732 
H          H       0.55505   0.88457   0.29732 
H          H       0.11543   0.67048   0.29732 
H          H       0.67048   0.55505   0.29732 
H          H       0.44495   0.11543   0.29732 
H          H       0.88457   0.32952   0.29732 
C          C       0.35712   0.64782   0.85148 
C          C       0.35218   0.70930   0.85148 
C          C       0.29070   0.64288   0.85148 
C          C       0.64288   0.35218   0.85148 
C          C       0.64782   0.29070   0.85148 
C          C       0.70930   0.35712   0.85148 
H          H       0.44047   0.68126   0.92577 
H          H       0.31874   0.75921   0.92577 
H          H       0.24079   0.55953   0.92577 
H          H       0.55953   0.31874   0.92577 
H          H       0.68126   0.24079   0.92577 
H          H       0.75921   0.44047   0.92577 
C          C       0.37570   0.69028   0.85112 
C          C       0.30972   0.68542   0.85112 
C          C       0.31458   0.62430   0.85112 
C          C       0.62430   0.30972   0.85112 
C          C       0.69028   0.31458   0.85112 
C          C       0.68542   0.37570   0.85112 
C          C       0.40046   0.51001   0.64820 
C          C       0.48999   0.89045   0.64820 
C          C       0.10955   0.59954   0.64820 
C          C       0.59954   0.48999   0.64820 
C          C       0.51001   0.10955   0.64820 
C          C       0.89045   0.40046   0.64820 
C          C       0.38297   0.62736   0.83561 
C          C       0.37264   0.75561   0.83561 
C          C       0.24439   0.61703   0.83561 
C          C       0.61703   0.37264   0.83561 
C          C       0.62736   0.24439   0.83561 
C          C       0.75561   0.38297   0.83561 
H          H       0.47396   0.42368   0.70019 
H          H       0.57632   0.05028   0.70019 
H          H       0.94972   0.52604   0.70019 
H          H       0.52604   0.57632   0.70019 
H          H       0.42368   0.94972   0.70019 
H          H       0.05028   0.47396   0.70019 
C          C       0.36483   0.58595   0.77293 
C          C       0.41405   0.77888   0.77293 
C          C       0.22112   0.63517   0.77293 
C          C       0.63517   0.41405   0.77293 
C          C       0.58595   0.22112   0.77293 
C          C       0.77888   0.36483   0.77293 
H          H       0.41916   0.40811   0.94194 
H          H       0.59189   0.01105   0.94194 
H          H       0.98895   0.58084   0.94194 
H          H       0.58084   0.59189   0.94194 
H          H       0.40811   0.98895   0.94194 
H          H       0.01105   0.41916   0.94194 
C          C       0.38919   0.56658   0.74523 
C          C       0.43342   0.82261   0.74523 
C          C       0.17739   0.61081   0.74523 
C          C       0.61081   0.43342   0.74523 
C          C       0.56658   0.17739   0.74523 
C          C       0.82261   0.38919   0.74523 
H          H       0.40310   0.38176   0.73212 
H          H       0.61824   0.02134   0.73212 
H          H       0.97866   0.59690   0.73212 
H          H       0.59690   0.61824   0.73212 
H          H       0.38176   0.97866   0.73212 
H          H       0.02134   0.40310   0.73212 
C          C       0.43248   0.58958   0.78824 
C          C       0.41042   0.84290   0.78824 
C          C       0.15710   0.56752   0.78824 
C          C       0.56752   0.41042   0.78824 
C          C       0.58958   0.15710   0.78824 
C          C       0.84290   0.43248   0.78824 
H          H       0.36692   0.38935   0.86239 
H          H       0.61065   0.97757   0.86239 
H          H       0.02243   0.63308   0.86239 
H          H       0.63308   0.61065   0.86239 
H          H       0.38935   0.02243   0.86239 
H          H       0.97757   0.36692   0.86239 
C          C       0.45038   0.63043   0.85374 
C          C       0.36957   0.81995   0.85374 
C          C       0.18005   0.54962   0.85374 
C          C       0.54962   0.36957   0.85374 
C          C       0.63043   0.18005   0.85374 
C          C       0.81995   0.45038   0.85374 
C          C       0.32669   0.49452   0.65524 
C          C       0.50548   0.83217   0.65524 
C          C       0.16783   0.67331   0.65524 
C          C       0.67331   0.50548   0.65524 
C          C       0.49452   0.16783   0.65524 
C          C       0.83217   0.32669   0.65524 
C          C       0.42598   0.64944   0.87576 
C          C       0.35056   0.77654   0.87576 
C          C       0.22346   0.57402   0.87576 
C          C       0.57402   0.35056   0.87576 
C          C       0.64944   0.22346   0.87576 
C          C       0.77654   0.42598   0.87576 
C          C       0.29978   0.50442   0.56236 
C          C       0.49558   0.79536   0.56236 
C          C       0.20464   0.70022   0.56236 
C          C       0.70022   0.49558   0.56236 
C          C       0.50442   0.20464   0.56236 
C          C       0.79536   0.29978   0.56236 
N          N       0.45696   0.57183   0.77081 
N          N       0.42817   0.88513   0.77081 
N          N       0.11487   0.54304   0.77081 
N          N       0.54304   0.42817   0.77081 
N          N       0.57183   0.11487   0.77081 
N          N       0.88513   0.45696   0.77081 
C          C       0.25701   0.47507   0.54517 
C          C       0.52493   0.78194   0.54517 
C          C       0.21806   0.74299   0.54517 
C          C       0.74299   0.52493   0.54517 
C          C       0.47507   0.21806   0.54517 
C          C       0.78194   0.25701   0.54517 
C          C       0.44228   0.53257   0.70539 
C          C       0.46743   0.90971   0.70539 
C          C       0.09029   0.55772   0.70539 
C          C       0.55772   0.46743   0.70539 
C          C       0.53257   0.09029   0.70539 
C          C       0.90971   0.44228   0.70539 
C          C       0.24069   0.43492   0.61596 
C          C       0.56508   0.80577   0.61596 
C          C       0.19423   0.75931   0.61596 
C          C       0.75931   0.56508   0.61596 
C          C       0.43492   0.19423   0.61596 
C          C       0.80577   0.24069   0.61596 
C          C       0.47109   0.51491   0.70049 
C          C       0.48509   0.95618   0.70049 
C          C       0.04382   0.52891   0.70049 
C          C       0.52891   0.48509   0.70049 
C          C       0.51491   0.04382   0.70049 
C          C       0.95618   0.47109   0.70049 
C          C       0.26714   0.42409   0.70417 
C          C       0.57591   0.84305   0.70417 
C          C       0.15695   0.73286   0.70417 
C          C       0.73286   0.57591   0.70417 
C          C       0.42409   0.15695   0.70417 
C          C       0.84305   0.26714   0.70417 
C          C       0.45624   0.47130   0.71270 
C          C       0.52870   0.98494   0.71270 
C          C       0.01506   0.54376   0.71270 
C          C       0.54376   0.52870   0.71270 
C          C       0.47130   0.01506   0.71270 
C          C       0.98494   0.45624   0.71270 
C          C       0.30976   0.45368   0.72451 
C          C       0.54632   0.85608   0.72451 
C          C       0.14392   0.69024   0.72451 
C          C       0.69024   0.54632   0.72451 
C          C       0.45368   0.14392   0.72451 
C          C       0.85608   0.30976   0.72451 
C          C       0.48525   0.45701   0.70236 
C          C       0.54299   0.02824   0.70236 
C          C       0.97176   0.51475   0.70236 
C          C       0.51475   0.54299   0.70236 
C          C       0.45701   0.97176   0.70236 
C          C       0.02824   0.48525   0.70236 
H          H       0.38903   0.48022   0.58269 
H          H       0.51978   0.90881   0.58269 
H          H       0.09119   0.61097   0.58269 
H          H       0.61097   0.51978   0.58269 
H          H       0.48022   0.09119   0.58269 
H          H       0.90881   0.38903   0.58269 
O          O       0.41295   0.44332   0.74087 
O          O       0.55668   0.96963   0.74087 
O          O       0.03037   0.58705   0.74087 
O          O       0.58705   0.55668   0.74087 
O          O       0.44332   0.03037   0.74087 
O          O       0.96963   0.41295   0.74087 
H          H       0.31164   0.53461   0.50183 
H          H       0.46539   0.77703   0.50183 
H          H       0.22297   0.68836   0.50183 
H          H       0.68836   0.46539   0.50183 
H          H       0.53461   0.22297   0.50183 
H          H       0.77703   0.31164   0.50183 
C          C       0.40038   0.40379   0.82273 
C          C       0.59621   0.99659   0.82273 
C          C       0.00341   0.59962   0.82273 
C          C       0.59962   0.59621   0.82273 
C          C       0.40379   0.00341   0.82273 
C          C       0.99659   0.40038   0.82273 
H          H       0.23670   0.48323   0.97361 
H          H       0.51677   0.75347   0.97361 
H          H       0.24653   0.76330   0.97361 
H          H       0.76330   0.51677   0.97361 
H          H       0.48323   0.24653   0.97361 
H          H       0.75347   0.23670   0.97361 
H          H       0.33175   0.56978   0.74539 
H          H       0.43022   0.76197   0.74539 
H          H       0.23803   0.66825   0.74539 
H          H       0.66825   0.43022   0.74539 
H          H       0.56978   0.23803   0.74539 
H          H       0.76197   0.33175   0.74539 
H          H       0.20765   0.41209   0.60120 
H          H       0.58791   0.79556   0.60120 
H          H       0.20444   0.79235   0.60120 
H          H       0.79235   0.58791   0.60120 
H          H       0.41209   0.20444   0.60120 
H          H       0.79556   0.20765   0.60120 
C          C       0.37256   0.52508   0.67840 
C          C       0.47492   0.84748   0.67840 
C          C       0.15252   0.62744   0.67840 
C          C       0.62744   0.47492   0.67840 
C          C       0.52508   0.15252   0.67840 
C          C       0.84748   0.37256   0.67840 
H          H       0.25451   0.39298   0.75954 
H          H       0.60702   0.86153   0.75954 
H          H       0.13847   0.74549   0.75954 
H          H       0.74549   0.60702   0.75954 
H          H       0.39298   0.13847   0.75954 
H          H       0.86153   0.25451   0.75954 
H          H       0.48339   0.64734   0.88773 
H          H       0.35266   0.83605   0.88773 
H          H       0.16395   0.51661   0.88773 
H          H       0.51661   0.35266   0.88773 
H          H       0.64734   0.16395   0.88773 
H          H       0.83605   0.48339   0.88773 
H          H       0.32952   0.44495   0.79732 
H          H       0.55505   0.88457   0.79732 
H          H       0.11543   0.67048   0.79732 
H          H       0.67048   0.55505   0.79732 
H          H       0.44495   0.11543   0.79732 
H          H       0.88457   0.32952   0.79732 
