data_crystal

_cell_length_a    37.21450
_cell_length_b    37.21450
_cell_length_c    8.17560
_cell_angle_alpha 90.00000
_cell_angle_beta  90.00000
_cell_angle_gamma 120.00000

_space_group_name_Hall 'P 1'
_space_group_name_H-M_alt  'P 1'

loop_
_symmetry_equiv_pos_as_xyz
'x,y,z' 

loop_
_atom_site_label
_atom_site_type_symbol
_atom_site_fract_x
_atom_site_fract_y
_atom_site_fract_z
C          C       0.28952   0.64628   0.24823 
C          C       0.35372   0.64324   0.24823 
C          C       0.35676   0.71048   0.24823 
C          C       0.71048   0.35372   0.24823 
C          C       0.64628   0.35676   0.24823 
C          C       0.64324   0.28952   0.24823 
C          C       0.49400   0.45989   0.29093 
C          C       0.54011   0.03411   0.29093 
C          C       0.96589   0.50600   0.29093 
C          C       0.50600   0.54011   0.29093 
C          C       0.45989   0.96589   0.29093 
C          C       0.03411   0.49400   0.29093 
C          C       0.31018   0.62336   0.24913 
C          C       0.37664   0.68682   0.24913 
C          C       0.31318   0.68982   0.24913 
C          C       0.68982   0.37664   0.24913 
C          C       0.62336   0.31318   0.24913 
C          C       0.68682   0.31018   0.24913 
H          H       0.29228   0.58985   0.24715 
H          H       0.41015   0.70243   0.24715 
H          H       0.29757   0.70772   0.24715 
H          H       0.70772   0.41015   0.24715 
H          H       0.58985   0.29757   0.24715 
H          H       0.70243   0.29228   0.24715 
C          C       0.24339   0.62475   0.23808 
C          C       0.37525   0.61864   0.23808 
C          C       0.38136   0.75661   0.23808 
C          C       0.75661   0.37525   0.23808 
C          C       0.62475   0.38136   0.23808 
C          C       0.61864   0.24339   0.23808 
H          H       0.32942   0.57103   0.07876 
H          H       0.42897   0.75839   0.07876 
H          H       0.24161   0.67058   0.07876 
H          H       0.67058   0.42897   0.07876 
H          H       0.57103   0.24161   0.07876 
H          H       0.75839   0.32942   0.07876 
C          C       0.35813   0.58181   0.14546 
C          C       0.41819   0.77632   0.14546 
C          C       0.22368   0.64187   0.14546 
C          C       0.64187   0.41819   0.14546 
C          C       0.58181   0.22368   0.14546 
C          C       0.77632   0.35813   0.14546 
H          H       0.36607   0.53188   0.05579 
H          H       0.46812   0.83419   0.05579 
H          H       0.16581   0.63393   0.05579 
H          H       0.63393   0.46812   0.05579 
H          H       0.53188   0.16581   0.05579 
H          H       0.83419   0.36607   0.05579 
C          C       0.37902   0.55950   0.13088 
C          C       0.44050   0.81952   0.13088 
C          C       0.18048   0.62098   0.13088 
C          C       0.62098   0.44050   0.13088 
C          C       0.55950   0.18048   0.13088 
C          C       0.81952   0.37902   0.13088 
H          H       0.46443   0.62109   0.35809 
H          H       0.37891   0.84334   0.35809 
H          H       0.15666   0.53557   0.35809 
H          H       0.53557   0.37891   0.35809 
H          H       0.62109   0.15666   0.35809 
H          H       0.84334   0.46443   0.35809 
C          C       0.41738   0.57371   0.20701 
C          C       0.42629   0.84367   0.20701 
C          C       0.15633   0.58262   0.20701 
C          C       0.58262   0.42629   0.20701 
C          C       0.57371   0.15633   0.20701 
C          C       0.84367   0.41738   0.20701 
H          H       0.42733   0.65986   0.39194 
H          H       0.34014   0.76747   0.39194 
H          H       0.23253   0.57267   0.39194 
H          H       0.57267   0.34014   0.39194 
H          H       0.65986   0.23253   0.39194 
H          H       0.76747   0.42733   0.39194 
C          C       0.43475   0.61017   0.29896 
C          C       0.38983   0.82458   0.29896 
C          C       0.17542   0.56525   0.29896 
C          C       0.56525   0.38983   0.29896 
C          C       0.61017   0.17542   0.29896 
C          C       0.82458   0.43475   0.29896 
H          H       0.48856   0.42848   0.29568 
H          H       0.57152   0.06008   0.29568 
H          H       0.93992   0.51144   0.29568 
H          H       0.51144   0.57152   0.29568 
H          H       0.42848   0.93992   0.29568 
H          H       0.06008   0.48856   0.29568 
C          C       0.41372   0.63234   0.31606 
C          C       0.36766   0.78138   0.31606 
C          C       0.21862   0.58628   0.31606 
C          C       0.58628   0.36766   0.31606 
C          C       0.63234   0.21862   0.31606 
C          C       0.78138   0.41372   0.31606 
H          H       0.46127   0.56254   0.08619 
H          H       0.43746   0.89873   0.08619 
H          H       0.10127   0.53873   0.08619 
H          H       0.53873   0.43746   0.08619 
H          H       0.56254   0.10127   0.08619 
H          H       0.89873   0.46127   0.08619 
N          N       0.44002   0.55247   0.18298 
N          N       0.44753   0.88755   0.18298 
N          N       0.11245   0.55998   0.18298 
N          N       0.55998   0.44753   0.18298 
N          N       0.55247   0.11245   0.18298 
N          N       0.88755   0.44002   0.18298 
C          C       0.39322   0.47869   0.18107 
C          C       0.52131   0.91453   0.18107 
C          C       0.08547   0.60678   0.18107 
C          C       0.60678   0.52131   0.18107 
C          C       0.47869   0.08547   0.18107 
C          C       0.91453   0.39322   0.18107 
C          C       0.42843   0.51317   0.26693 
C          C       0.48683   0.91526   0.26693 
C          C       0.08474   0.57157   0.26693 
C          C       0.57157   0.48683   0.26693 
C          C       0.51317   0.08474   0.26693 
C          C       0.91526   0.42843   0.26693 
N          N       0.36566   0.45166   0.11321 
N          N       0.54834   0.91400   0.11321 
N          N       0.08600   0.63434   0.11321 
N          N       0.63434   0.54834   0.11321 
N          N       0.45166   0.08600   0.11321 
N          N       0.91400   0.36566   0.11321 
C          C       0.46535   0.50618   0.28103 
C          C       0.49382   0.95917   0.28103 
C          C       0.04083   0.53465   0.28103 
C          C       0.53465   0.49382   0.28103 
C          C       0.50618   0.04083   0.28103 
C          C       0.95917   0.46535   0.28103 
H          H       0.41752   0.51400   0.39171 
H          H       0.48600   0.90352   0.39171 
H          H       0.09648   0.58248   0.39171 
H          H       0.58248   0.48600   0.39171 
H          H       0.51400   0.09648   0.39171 
H          H       0.90352   0.41752   0.39171 
C          C       0.45984   0.46594   0.29080 
C          C       0.53406   0.99390   0.29080 
C          C       0.00610   0.54016   0.29080 
C          C       0.54016   0.53406   0.29080 
C          C       0.46594   0.00610   0.29080 
C          C       0.99390   0.45984   0.29080 
H          H       0.42902   0.43896   0.29526 
H          H       0.56104   0.99006   0.29526 
H          H       0.00994   0.57098   0.29526 
H          H       0.57098   0.56104   0.29526 
H          H       0.43896   0.00994   0.29526 
H          H       0.99006   0.42902   0.29526 
C          C       0.28952   0.64628   0.74823 
C          C       0.35372   0.64324   0.74823 
C          C       0.35676   0.71048   0.74823 
C          C       0.71048   0.35372   0.74823 
C          C       0.64628   0.35676   0.74823 
C          C       0.64324   0.28952   0.74823 
C          C       0.49400   0.45989   0.79093 
C          C       0.54011   0.03411   0.79093 
C          C       0.96589   0.50600   0.79093 
C          C       0.50600   0.54011   0.79093 
C          C       0.45989   0.96589   0.79093 
C          C       0.03411   0.49400   0.79093 
C          C       0.31018   0.62336   0.74913 
C          C       0.37664   0.68682   0.74913 
C          C       0.31318   0.68982   0.74913 
C          C       0.68982   0.37664   0.74913 
C          C       0.62336   0.31318   0.74913 
C          C       0.68682   0.31018   0.74913 
H          H       0.29228   0.58985   0.74714 
H          H       0.41015   0.70243   0.74714 
H          H       0.29757   0.70772   0.74714 
H          H       0.70772   0.41015   0.74714 
H          H       0.58985   0.29757   0.74714 
H          H       0.70243   0.29228   0.74714 
C          C       0.24339   0.62475   0.73808 
C          C       0.37525   0.61864   0.73808 
C          C       0.38136   0.75661   0.73808 
C          C       0.75661   0.37525   0.73808 
C          C       0.62475   0.38136   0.73808 
C          C       0.61864   0.24339   0.73808 
H          H       0.32942   0.57103   0.57876 
H          H       0.42897   0.75839   0.57876 
H          H       0.24161   0.67058   0.57876 
H          H       0.67058   0.42897   0.57876 
H          H       0.57103   0.24161   0.57876 
H          H       0.75839   0.32942   0.57876 
C          C       0.35813   0.58181   0.64546 
C          C       0.41819   0.77632   0.64546 
C          C       0.22368   0.64187   0.64546 
C          C       0.64187   0.41819   0.64546 
C          C       0.58181   0.22368   0.64546 
C          C       0.77632   0.35813   0.64546 
H          H       0.36607   0.53188   0.55579 
H          H       0.46812   0.83419   0.55579 
H          H       0.16581   0.63393   0.55579 
H          H       0.63393   0.46812   0.55579 
H          H       0.53188   0.16581   0.55579 
H          H       0.83419   0.36607   0.55579 
C          C       0.37902   0.55950   0.63088 
C          C       0.44050   0.81952   0.63088 
C          C       0.18048   0.62098   0.63088 
C          C       0.62098   0.44050   0.63088 
C          C       0.55950   0.18048   0.63088 
C          C       0.81952   0.37902   0.63088 
H          H       0.46443   0.62109   0.85809 
H          H       0.37891   0.84334   0.85809 
H          H       0.15666   0.53557   0.85809 
H          H       0.53557   0.37891   0.85809 
H          H       0.62109   0.15666   0.85809 
H          H       0.84334   0.46443   0.85809 
C          C       0.41738   0.57371   0.70701 
C          C       0.42629   0.84367   0.70701 
C          C       0.15633   0.58262   0.70701 
C          C       0.58262   0.42629   0.70701 
C          C       0.57371   0.15633   0.70701 
C          C       0.84367   0.41738   0.70701 
H          H       0.42733   0.65986   0.89194 
H          H       0.34014   0.76747   0.89194 
H          H       0.23253   0.57267   0.89194 
H          H       0.57267   0.34014   0.89194 
H          H       0.65986   0.23253   0.89194 
H          H       0.76747   0.42733   0.89194 
C          C       0.43475   0.61017   0.79896 
C          C       0.38983   0.82458   0.79896 
C          C       0.17542   0.56525   0.79896 
C          C       0.56525   0.38983   0.79896 
C          C       0.61017   0.17542   0.79896 
C          C       0.82458   0.43475   0.79896 
H          H       0.48856   0.42848   0.79568 
H          H       0.57152   0.06008   0.79568 
H          H       0.93992   0.51144   0.79568 
H          H       0.51144   0.57152   0.79568 
H          H       0.42848   0.93992   0.79568 
H          H       0.06008   0.48856   0.79568 
C          C       0.41372   0.63234   0.81606 
C          C       0.36766   0.78138   0.81606 
C          C       0.21862   0.58628   0.81606 
C          C       0.58628   0.36766   0.81606 
C          C       0.63234   0.21862   0.81606 
C          C       0.78138   0.41372   0.81606 
H          H       0.46127   0.56254   0.58619 
H          H       0.43746   0.89873   0.58619 
H          H       0.10127   0.53873   0.58619 
H          H       0.53873   0.43746   0.58619 
H          H       0.56254   0.10127   0.58619 
H          H       0.89873   0.46127   0.58619 
N          N       0.44002   0.55247   0.68298 
N          N       0.44753   0.88755   0.68298 
N          N       0.11245   0.55998   0.68298 
N          N       0.55998   0.44753   0.68298 
N          N       0.55247   0.11245   0.68298 
N          N       0.88755   0.44002   0.68298 
C          C       0.39322   0.47869   0.68107 
C          C       0.52131   0.91453   0.68107 
C          C       0.08547   0.60678   0.68107 
C          C       0.60678   0.52131   0.68107 
C          C       0.47869   0.08547   0.68107 
C          C       0.91453   0.39322   0.68107 
C          C       0.42843   0.51317   0.76694 
C          C       0.48683   0.91526   0.76694 
C          C       0.08474   0.57157   0.76694 
C          C       0.57157   0.48683   0.76694 
C          C       0.51317   0.08474   0.76694 
C          C       0.91526   0.42843   0.76694 
N          N       0.36566   0.45166   0.61321 
N          N       0.54834   0.91400   0.61321 
N          N       0.08600   0.63434   0.61321 
N          N       0.63434   0.54834   0.61321 
N          N       0.45166   0.08600   0.61321 
N          N       0.91400   0.36566   0.61321 
C          C       0.46535   0.50618   0.78104 
C          C       0.49382   0.95917   0.78104 
C          C       0.04083   0.53465   0.78104 
C          C       0.53465   0.49382   0.78104 
C          C       0.50618   0.04083   0.78104 
C          C       0.95917   0.46535   0.78104 
H          H       0.41752   0.51400   0.89171 
H          H       0.48600   0.90352   0.89171 
H          H       0.09648   0.58248   0.89171 
H          H       0.58248   0.48600   0.89171 
H          H       0.51400   0.09648   0.89171 
H          H       0.90352   0.41752   0.89171 
C          C       0.45984   0.46594   0.79080 
C          C       0.53406   0.99390   0.79080 
C          C       0.00610   0.54016   0.79080 
C          C       0.54016   0.53406   0.79080 
C          C       0.46594   0.00610   0.79080 
C          C       0.99390   0.45984   0.79080 
H          H       0.42902   0.43896   0.79526 
H          H       0.56104   0.99006   0.79526 
H          H       0.00994   0.57098   0.79526 
H          H       0.57098   0.56104   0.79526 
H          H       0.43896   0.00994   0.79526 
H          H       0.99006   0.42902   0.79526 
