data_crystal

_cell_length_a    36.87500
_cell_length_b    36.87500
_cell_length_c    8.20880
_cell_angle_alpha 90.00000
_cell_angle_beta  90.00000
_cell_angle_gamma 120.00000

_space_group_name_Hall 'P 1'
_space_group_name_H-M_alt  'P 1'

loop_
_symmetry_equiv_pos_as_xyz
'x,y,z' 

loop_
_atom_site_label
_atom_site_type_symbol
_atom_site_fract_x
_atom_site_fract_y
_atom_site_fract_z
C          C       0.28875   0.64714   0.26110 
C          C       0.71125   0.35286   0.26110 
N          N       0.44799   0.88744   0.15683 
N          N       0.55201   0.11256   0.15683 
C          C       0.30785   0.62235   0.26394 
C          C       0.69215   0.37765   0.26394 
C          C       0.48762   0.91479   0.24078 
C          C       0.51238   0.08521   0.24078 
C          C       0.24240   0.62793   0.25689 
C          C       0.75760   0.37207   0.25689 
C          C       0.49476   0.95922   0.26224 
C          C       0.50524   0.04078   0.26224 
C          C       0.35324   0.57751   0.15515 
C          C       0.64676   0.42249   0.15515 
C          C       0.53520   0.99447   0.28279 
C          C       0.46480   0.00553   0.28279 
C          C       0.37342   0.55424   0.13780 
C          C       0.62658   0.44576   0.13780 
O          O       0.56930   0.98784   0.30969 
O          O       0.43070   0.01216   0.30969 
C          C       0.41279   0.56830   0.20806 
C          C       0.58721   0.43170   0.20806 
H          H       0.40933   0.70002   0.23670 
H          H       0.59067   0.29998   0.23670 
C          C       0.43170   0.60555   0.29751 
C          C       0.56830   0.39445   0.29751 
H          H       0.43045   0.75659   0.07669 
H          H       0.56955   0.24341   0.07669 
C          C       0.41138   0.62871   0.31677 
C          C       0.58862   0.37129   0.31677 
H          H       0.46969   0.83240   0.04595 
H          H       0.53031   0.16760   0.04595 
N          N       0.43490   0.54629   0.17917 
N          N       0.56510   0.45371   0.17917 
H          H       0.37507   0.84294   0.31323 
H          H       0.62493   0.15706   0.31323 
C          C       0.42430   0.50736   0.26484 
C          C       0.57570   0.49264   0.26484 
H          H       0.33539   0.76644   0.34926 
H          H       0.66461   0.23356   0.34926 
C          C       0.46305   0.50276   0.28811 
C          C       0.53695   0.49724   0.28811 
H          H       0.43780   0.89939   0.06310 
H          H       0.56220   0.10061   0.06310 
C          C       0.46025   0.46334   0.30837 
C          C       0.53975   0.53666   0.30837 
C          C       0.52183   0.91427   0.15013 
C          C       0.47817   0.08573   0.15013 
C          C       0.49729   0.46106   0.30223 
C          C       0.50271   0.53894   0.30223 
N          N       0.54876   0.91379   0.07956 
N          N       0.45124   0.08621   0.07956 
O          O       0.42043   0.42775   0.33419 
O          O       0.57957   0.57225   0.33419 
H          H       0.48647   0.90167   0.36260 
H          H       0.51353   0.09833   0.36260 
C          C       0.58186   0.61009   0.38888 
C          C       0.41814   0.38991   0.38888 
C          C       0.35584   0.70912   0.23953 
C          C       0.64416   0.29088   0.23953 
H          H       0.28898   0.58862   0.26923 
H          H       0.71102   0.41138   0.26923 
N          N       0.31331   0.68948   0.24831 
N          N       0.68669   0.31052   0.24831 
H          H       0.32363   0.56674   0.09350 
H          H       0.67637   0.43326   0.09350 
C          C       0.38022   0.75535   0.21997 
C          C       0.61978   0.24465   0.21997 
H          H       0.35901   0.52599   0.06496 
H          H       0.64099   0.47401   0.06496 
C          C       0.22435   0.64900   0.17816 
C          C       0.77565   0.35100   0.17816 
H          H       0.46221   0.61663   0.35193 
H          H       0.53779   0.38337   0.35193 
C          C       0.18093   0.62981   0.15943 
C          C       0.81907   0.37019   0.15943 
H          H       0.42643   0.65710   0.38866 
H          H       0.57357   0.34290   0.38866 
C          C       0.15487   0.58937   0.21955 
C          C       0.84513   0.41063   0.21955 
H          H       0.49555   0.43098   0.30765 
H          H       0.50445   0.56902   0.30765 
C          C       0.17233   0.56870   0.30277 
C          C       0.82767   0.43130   0.30277 
H          H       0.57122   0.62366   0.29210 
H          H       0.42878   0.37634   0.29210 
C          C       0.21569   0.58796   0.32334 
C          C       0.78431   0.41204   0.32334 
H          H       0.61496   0.63319   0.41724 
H          H       0.38504   0.36681   0.41724 
N          N       0.11101   0.56792   0.18474 
N          N       0.88899   0.43208   0.18474 
H          H       0.56308   0.60441   0.00156 
H          H       0.43692   0.39559   0.00156 
C          C       0.08188   0.57733   0.27081 
C          C       0.91812   0.42267   0.27081 
H          H       0.45631   0.55650   0.08286 
H          H       0.54369   0.44350   0.08286 
C          C       0.03911   0.53771   0.29422 
C          C       0.96089   0.46229   0.29422 
C          C       0.39070   0.47218   0.17389 
C          C       0.60930   0.52782   0.17389 
C          C       0.00175   0.53915   0.31424 
C          C       0.99825   0.46085   0.31424 
N          N       0.36416   0.44449   0.10299 
N          N       0.63584   0.55551   0.10299 
O          O       0.00462   0.57839   0.33982 
O          O       0.99538   0.42161   0.33982 
H          H       0.41163   0.50794   0.38585 
H          H       0.58837   0.49206   0.38585 
H          H       0.24386   0.67969   0.12521 
H          H       0.75614   0.32031   0.12521 
C          C       0.53997   0.03487   0.27618 
C          C       0.46003   0.96513   0.27618 
H          H       0.16773   0.64580   0.09273 
H          H       0.83227   0.35420   0.09273 
C          C       0.39203   0.97801   0.36609 
C          C       0.60797   0.02199   0.36609 
H          H       0.15229   0.53749   0.35030 
H          H       0.84771   0.46251   0.35030 
H          H       0.57085   0.06213   0.28183 
H          H       0.42915   0.93787   0.28183 
H          H       0.22809   0.57131   0.39038 
H          H       0.77191   0.42869   0.39038 
H          H       0.37709   0.95381   0.26991 
H          H       0.62291   0.04619   0.26991 
H          H       0.10028   0.54634   0.08901 
H          H       0.89972   0.45366   0.08901 
H          H       0.37043   0.98984   0.39544 
H          H       0.62957   0.01016   0.39544 
C          C       0.07908   0.61024   0.17975 
C          C       0.92092   0.38976   0.17975 
H          H       0.39702   0.96433   0.47857 
H          H       0.60298   0.03567   0.47857 
N          N       0.07698   0.63626   0.10877 
N          N       0.92302   0.36374   0.10877 
C          C       0.35159   0.64120   0.25409 
C          C       0.64841   0.35880   0.25409 
H          H       0.09498   0.59031   0.39169 
H          H       0.90502   0.40969   0.39169 
C          C       0.37560   0.68500   0.24418 
C          C       0.62440   0.31500   0.24418 
C          C       0.96304   0.50137   0.30819 
C          C       0.03696   0.49863   0.30819 
C          C       0.37206   0.61523   0.24410 
C          C       0.62794   0.38477   0.24410 
C          C       0.03167   0.42061   0.39378 
C          C       0.96833   0.57939   0.39378 
C          C       0.41839   0.77482   0.13398 
C          C       0.58161   0.22518   0.13398 
H          H       0.93416   0.50208   0.31353 
H          H       0.06584   0.49792   0.31353 
C          C       0.44088   0.81825   0.11528 
C          C       0.55912   0.18175   0.11528 
H          H       0.05582   0.43192   0.29663 
H          H       0.94418   0.56808   0.29663 
C          C       0.42564   0.84306   0.18107 
C          C       0.57436   0.15694   0.18107 
H          H       0.02267   0.38774   0.42188 
H          H       0.97733   0.61226   0.42188 
C          C       0.38730   0.82400   0.26355 
C          C       0.61270   0.17600   0.26355 
H          H       0.04441   0.43948   0.00645 
H          H       0.95559   0.56052   0.00645 
C          C       0.36476   0.78046   0.28330 
C          C       0.63524   0.21954   0.28330 
C          C       0.28875   0.64714   0.76110 
C          C       0.71125   0.35286   0.76110 
N          N       0.44799   0.88744   0.65683 
N          N       0.55201   0.11256   0.65683 
C          C       0.30785   0.62235   0.76394 
C          C       0.69215   0.37765   0.76394 
C          C       0.48762   0.91479   0.74078 
C          C       0.51238   0.08521   0.74078 
C          C       0.24240   0.62793   0.75689 
C          C       0.75760   0.37207   0.75689 
C          C       0.49476   0.95922   0.76224 
C          C       0.50524   0.04078   0.76224 
C          C       0.35324   0.57751   0.65515 
C          C       0.64676   0.42249   0.65515 
C          C       0.53520   0.99447   0.78278 
C          C       0.46480   0.00553   0.78278 
C          C       0.37342   0.55424   0.63780 
C          C       0.62658   0.44576   0.63780 
O          O       0.56930   0.98784   0.80970 
O          O       0.43070   0.01216   0.80970 
C          C       0.41279   0.56830   0.70806 
C          C       0.58721   0.43170   0.70806 
H          H       0.40933   0.70002   0.73670 
H          H       0.59067   0.29998   0.73670 
C          C       0.43170   0.60555   0.79751 
C          C       0.56830   0.39445   0.79751 
H          H       0.43045   0.75659   0.57669 
H          H       0.56955   0.24341   0.57669 
C          C       0.41138   0.62871   0.81677 
C          C       0.58862   0.37129   0.81677 
H          H       0.46969   0.83240   0.54595 
H          H       0.53031   0.16760   0.54595 
N          N       0.43490   0.54629   0.67917 
N          N       0.56510   0.45371   0.67917 
H          H       0.37507   0.84294   0.81323 
H          H       0.62493   0.15706   0.81323 
C          C       0.42430   0.50736   0.76484 
C          C       0.57570   0.49264   0.76484 
H          H       0.33539   0.76644   0.84926 
H          H       0.66461   0.23356   0.84926 
C          C       0.46305   0.50276   0.78812 
C          C       0.53695   0.49724   0.78812 
H          H       0.43780   0.89939   0.56310 
H          H       0.56220   0.10061   0.56310 
C          C       0.46025   0.46334   0.80837 
C          C       0.53975   0.53666   0.80837 
C          C       0.52183   0.91427   0.65014 
C          C       0.47817   0.08573   0.65014 
C          C       0.49729   0.46106   0.80223 
C          C       0.50271   0.53894   0.80223 
N          N       0.54876   0.91379   0.57956 
N          N       0.45124   0.08621   0.57956 
O          O       0.42043   0.42775   0.83419 
O          O       0.57957   0.57225   0.83419 
H          H       0.48647   0.90167   0.86260 
H          H       0.51353   0.09833   0.86260 
C          C       0.58186   0.61009   0.88889 
C          C       0.41814   0.38991   0.88889 
C          C       0.35584   0.70912   0.73953 
C          C       0.64416   0.29088   0.73953 
H          H       0.28898   0.58862   0.76923 
H          H       0.71102   0.41138   0.76923 
N          N       0.31331   0.68948   0.74831 
N          N       0.68669   0.31052   0.74831 
H          H       0.32363   0.56674   0.59350 
H          H       0.67637   0.43326   0.59350 
C          C       0.38022   0.75535   0.71997 
C          C       0.61978   0.24465   0.71997 
H          H       0.35901   0.52599   0.56496 
H          H       0.64099   0.47401   0.56496 
C          C       0.22435   0.64900   0.67816 
C          C       0.77565   0.35100   0.67816 
H          H       0.46221   0.61663   0.85193 
H          H       0.53779   0.38337   0.85193 
C          C       0.18093   0.62981   0.65943 
C          C       0.81907   0.37019   0.65943 
H          H       0.42643   0.65710   0.88867 
H          H       0.57357   0.34290   0.88867 
C          C       0.15487   0.58937   0.71955 
C          C       0.84513   0.41063   0.71955 
H          H       0.49555   0.43098   0.80765 
H          H       0.50445   0.56902   0.80765 
C          C       0.17233   0.56870   0.80276 
C          C       0.82767   0.43130   0.80276 
H          H       0.57122   0.62366   0.79210 
H          H       0.42878   0.37634   0.79210 
C          C       0.21569   0.58796   0.82334 
C          C       0.78431   0.41204   0.82334 
H          H       0.61496   0.63319   0.91724 
H          H       0.38504   0.36681   0.91724 
N          N       0.11101   0.56792   0.68475 
N          N       0.88899   0.43208   0.68475 
H          H       0.56308   0.60441   0.50156 
H          H       0.43692   0.39559   0.50156 
C          C       0.08188   0.57733   0.77080 
C          C       0.91812   0.42267   0.77080 
H          H       0.45631   0.55650   0.58286 
H          H       0.54369   0.44350   0.58286 
C          C       0.03911   0.53771   0.79422 
C          C       0.96089   0.46229   0.79422 
C          C       0.39070   0.47218   0.67390 
C          C       0.60930   0.52782   0.67390 
C          C       0.00175   0.53915   0.81424 
C          C       0.99825   0.46085   0.81424 
N          N       0.36416   0.44449   0.60299 
N          N       0.63584   0.55551   0.60299 
O          O       0.00462   0.57839   0.83982 
O          O       0.99538   0.42161   0.83982 
H          H       0.41163   0.50794   0.88585 
H          H       0.58837   0.49206   0.88585 
H          H       0.24386   0.67969   0.62521 
H          H       0.75614   0.32031   0.62521 
C          C       0.53997   0.03487   0.77618 
C          C       0.46003   0.96513   0.77618 
H          H       0.16773   0.64580   0.59273 
H          H       0.83227   0.35420   0.59273 
C          C       0.39203   0.97801   0.86609 
C          C       0.60797   0.02199   0.86609 
H          H       0.15229   0.53749   0.85030 
H          H       0.84771   0.46251   0.85030 
H          H       0.57085   0.06213   0.78183 
H          H       0.42915   0.93787   0.78183 
H          H       0.22809   0.57131   0.89037 
H          H       0.77191   0.42869   0.89037 
H          H       0.37709   0.95381   0.76991 
H          H       0.62291   0.04619   0.76991 
H          H       0.10028   0.54634   0.58901 
H          H       0.89972   0.45366   0.58901 
H          H       0.37043   0.98984   0.89544 
H          H       0.62957   0.01016   0.89544 
C          C       0.07908   0.61024   0.67975 
C          C       0.92092   0.38976   0.67975 
H          H       0.39702   0.96433   0.97856 
H          H       0.60298   0.03567   0.97856 
N          N       0.07698   0.63626   0.60877 
N          N       0.92302   0.36374   0.60877 
C          C       0.35159   0.64120   0.75409 
C          C       0.64841   0.35880   0.75409 
H          H       0.09498   0.59031   0.89169 
H          H       0.90502   0.40969   0.89169 
C          C       0.37560   0.68500   0.74417 
C          C       0.62440   0.31500   0.74417 
C          C       0.96304   0.50137   0.80819 
C          C       0.03696   0.49863   0.80819 
C          C       0.37206   0.61523   0.74411 
C          C       0.62794   0.38477   0.74411 
C          C       0.03167   0.42061   0.89378 
C          C       0.96833   0.57939   0.89378 
C          C       0.41839   0.77482   0.63398 
C          C       0.58161   0.22518   0.63398 
H          H       0.93416   0.50208   0.81353 
H          H       0.06584   0.49792   0.81353 
C          C       0.44088   0.81825   0.61528 
C          C       0.55912   0.18175   0.61528 
H          H       0.05582   0.43192   0.79663 
H          H       0.94418   0.56808   0.79663 
C          C       0.42564   0.84306   0.68107 
C          C       0.57436   0.15694   0.68107 
H          H       0.02267   0.38774   0.92188 
H          H       0.97733   0.61226   0.92188 
C          C       0.38730   0.82400   0.76355 
C          C       0.61270   0.17600   0.76355 
H          H       0.04441   0.43948   0.50645 
H          H       0.95559   0.56052   0.50645 
C          C       0.36476   0.78046   0.78330 
C          C       0.63524   0.21954   0.78330 
