data_crystal

_cell_length_a    36.89700
_cell_length_b    36.89700
_cell_length_c    7.80020
_cell_angle_alpha 90.00000
_cell_angle_beta  90.00000
_cell_angle_gamma 120.00000

_space_group_name_Hall 'P 1'
_space_group_name_H-M_alt  'P 1'

loop_
_symmetry_equiv_pos_as_xyz
'x,y,z' 

loop_
_atom_site_label
_atom_site_type_symbol
_atom_site_fract_x
_atom_site_fract_y
_atom_site_fract_z
C          C       0.35680   0.64601   0.37100 
C          C       0.64320   0.35399   0.37100 
H          H       0.35155   0.83501   0.39403 
H          H       0.64845   0.16499   0.39403 
C          C       0.37598   0.68967   0.35970 
C          C       0.62402   0.31033   0.35970 
H          H       0.31896   0.75908   0.43058 
H          H       0.68104   0.24092   0.43058 
C          C       0.38226   0.62487   0.35692 
C          C       0.61774   0.37513   0.35692 
C          C       0.48717   0.89053   0.13923 
C          C       0.51283   0.10947   0.13923 
C          C       0.36584   0.58591   0.27347 
C          C       0.63416   0.41409   0.27347 
H          H       0.59436   0.01258   0.43090 
H          H       0.40564   0.98742   0.43090 
C          C       0.38961   0.56597   0.25153 
C          C       0.61039   0.43403   0.25153 
H          H       0.61541   0.01627   0.21660 
H          H       0.38459   0.98373   0.21660 
C          C       0.43151   0.58701   0.31019 
C          C       0.56849   0.41299   0.31019 
H          H       0.60931   0.97553   0.35956 
H          H       0.39069   0.02447   0.35956 
C          C       0.44793   0.62546   0.39430 
C          C       0.55207   0.37454   0.39430 
C          C       0.50193   0.83214   0.13258 
C          C       0.49807   0.16786   0.13258 
C          C       0.42347   0.64404   0.41942 
C          C       0.57653   0.35596   0.41942 
C          C       0.49211   0.79635   0.03478 
C          C       0.50789   0.20365   0.03478 
N          N       0.45587   0.56942   0.29028 
N          N       0.54413   0.43058   0.29028 
C          C       0.52078   0.78233   0.01728 
C          C       0.47922   0.21767   0.01728 
C          C       0.44230   0.53203   0.21110 
C          C       0.55770   0.46797   0.21110 
C          C       0.56043   0.80487   0.09102 
C          C       0.43957   0.19513   0.09102 
C          C       0.47105   0.51462   0.20173 
C          C       0.52895   0.48538   0.20173 
C          C       0.57140   0.84142   0.18260 
C          C       0.42860   0.15858   0.18260 
C          C       0.45645   0.47123   0.21208 
C          C       0.54355   0.52877   0.21208 
C          C       0.54236   0.85484   0.20430 
C          C       0.45764   0.14516   0.20430 
C          C       0.48563   0.45725   0.20128 
C          C       0.51437   0.54275   0.20128 
H          H       0.51683   0.90904   0.07472 
H          H       0.48317   0.09096   0.07472 
O          O       0.41345   0.44358   0.24224 
O          O       0.58655   0.55642   0.24224 
H          H       0.46245   0.77909   0.47137 
H          H       0.53755   0.22091   0.47137 
C          C       0.40049   0.40238   0.30300 
C          C       0.59951   0.59762   0.30300 
H          H       0.51245   0.75434   0.44381 
H          H       0.48755   0.24566   0.44381 
H          H       0.40963   0.70798   0.35481 
H          H       0.59037   0.29202   0.35481 
H          H       0.58275   0.79419   0.07612 
H          H       0.41725   0.20581   0.07612 
H          H       0.33456   0.57182   0.22505 
H          H       0.66544   0.42818   0.22505 
H          H       0.60216   0.85895   0.23977 
H          H       0.39784   0.14105   0.23977 
C          C       0.37363   0.52572   0.17518 
C          C       0.62637   0.47428   0.17518 
H          H       0.55121   0.88259   0.28048 
H          H       0.44879   0.11741   0.28048 
H          H       0.47971   0.64085   0.44258 
H          H       0.52029   0.35915   0.44258 
C          C       0.28904   0.64249   0.37356 
C          C       0.71096   0.35751   0.37356 
H          H       0.43689   0.67327   0.48923 
H          H       0.56311   0.32673   0.48923 
C          C       0.31300   0.62260   0.38221 
C          C       0.68700   0.37740   0.38221 
C          C       0.40140   0.51070   0.14588 
C          C       0.59860   0.48930   0.14588 
C          C       0.24239   0.61778   0.36510 
C          C       0.75761   0.38222   0.36510 
H          H       0.47482   0.42410   0.19836 
H          H       0.52518   0.57590   0.19836 
C          C       0.22013   0.63537   0.28873 
C          C       0.77987   0.36463   0.28873 
H          H       0.41905   0.40366   0.41696 
H          H       0.58095   0.59634   0.41696 
C          C       0.17636   0.61174   0.26393 
C          C       0.82364   0.38826   0.26393 
H          H       0.40344   0.38307   0.20111 
H          H       0.59656   0.61693   0.20111 
C          C       0.15524   0.56948   0.31839 
C          C       0.84476   0.43052   0.31839 
H          H       0.36706   0.38720   0.34059 
H          H       0.63294   0.61280   0.34059 
C          C       0.17686   0.55248   0.40090 
C          C       0.82314   0.44752   0.40090 
C          C       0.32808   0.49546   0.14773 
C          C       0.67192   0.50454   0.14773 
C          C       0.21987   0.57639   0.42593 
C          C       0.78013   0.42361   0.42593 
C          C       0.30186   0.50543   0.05252 
C          C       0.69814   0.49457   0.05252 
N          N       0.11339   0.54517   0.29571 
N          N       0.88661   0.45483   0.29571 
C          C       0.25934   0.47639   0.03276 
C          C       0.74066   0.52361   0.03276 
C          C       0.08968   0.55895   0.21744 
C          C       0.91032   0.44105   0.21744 
C          C       0.24259   0.43640   0.10287 
C          C       0.75741   0.56360   0.10287 
C          C       0.04354   0.52963   0.20408 
C          C       0.95646   0.47037   0.20408 
C          C       0.26836   0.42545   0.19306 
C          C       0.73164   0.57455   0.19306 
C          C       0.01412   0.54345   0.21316 
C          C       0.98588   0.45655   0.21316 
C          C       0.31071   0.45476   0.21624 
C          C       0.68929   0.54524   0.21624 
O          O       0.02874   0.58634   0.24238 
O          O       0.97126   0.41366   0.24238 
H          H       0.39040   0.48183   0.07531 
H          H       0.60960   0.51817   0.07531 
C          C       0.99997   0.59866   0.30274 
C          C       0.00003   0.40134   0.30274 
H          H       0.31391   0.53536   0.49214 
H          H       0.68609   0.46464   0.49214 
H          H       0.29779   0.58902   0.39175 
H          H       0.70221   0.41098   0.39175 
H          H       0.23953   0.48472   0.46041 
H          H       0.76047   0.51528   0.46041 
H          H       0.23771   0.66750   0.24939 
H          H       0.76229   0.33250   0.24939 
H          H       0.20973   0.41382   0.08615 
H          H       0.79027   0.58618   0.08615 
C          C       0.15225   0.62804   0.18854 
C          C       0.84775   0.37196   0.18854 
H          H       0.25543   0.39442   0.24726 
H          H       0.74457   0.60558   0.24726 
H          H       0.16019   0.52050   0.44697 
H          H       0.83981   0.47950   0.44697 
H          H       0.32985   0.44582   0.29022 
H          H       0.67015   0.55418   0.29022 
H          H       0.23504   0.56218   0.49440 
H          H       0.76496   0.43782   0.49440 
C          C       0.54301   0.02739   0.21018 
C          C       0.45699   0.97261   0.21018 
C          C       0.10942   0.60035   0.15685 
C          C       0.89058   0.39965   0.15685 
H          H       0.57636   0.04887   0.20751 
H          H       0.42364   0.95113   0.20751 
H          H       0.98280   0.57996   0.41657 
H          H       0.01720   0.42004   0.41657 
C          C       0.35160   0.70916   0.34918 
C          C       0.64840   0.29084   0.34918 
H          H       0.97764   0.59536   0.20056 
H          H       0.02236   0.40464   0.20056 
N          N       0.30914   0.68495   0.35644 
N          N       0.69086   0.31505   0.35644 
H          H       0.01777   0.63211   0.34042 
H          H       0.98223   0.36789   0.34042 
C          C       0.37112   0.75528   0.32364 
C          C       0.62888   0.24472   0.32364 
C          C       0.16803   0.67367   0.16008 
C          C       0.83197   0.32633   0.16008 
C          C       0.41098   0.77872   0.24823 
C          C       0.58902   0.22128   0.24823 
C          C       0.20471   0.69961   0.06692 
C          C       0.79529   0.30039   0.06692 
C          C       0.43050   0.82245   0.22812 
C          C       0.56950   0.17755   0.22812 
C          C       0.21832   0.74208   0.04394 
C          C       0.78168   0.25792   0.04394 
C          C       0.40840   0.84263   0.28208 
C          C       0.59160   0.15737   0.28208 
C          C       0.19495   0.75912   0.10985 
C          C       0.80505   0.24088   0.10985 
C          C       0.36826   0.81940   0.35235 
C          C       0.63174   0.18060   0.35235 
C          C       0.15798   0.73372   0.19920 
C          C       0.84202   0.26628   0.19920 
C          C       0.34974   0.77613   0.37294 
C          C       0.65026   0.22387   0.37294 
C          C       0.14467   0.69138   0.22487 
C          C       0.85533   0.30862   0.22487 
N          N       0.42657   0.88492   0.27183 
N          N       0.57343   0.11508   0.27183 
H          H       0.09178   0.61166   0.08662 
H          H       0.90822   0.38834   0.08662 
C          C       0.46544   0.90961   0.20516 
C          C       0.53456   0.09039   0.20516 
H          H       0.22299   0.68744   0.01106 
H          H       0.77701   0.31256   0.01106 
C          C       0.48402   0.95612   0.20726 
C          C       0.51598   0.04388   0.20726 
H          H       0.24673   0.76165   0.47275 
H          H       0.75327   0.23835   0.47275 
C          C       0.52762   0.98393   0.22183 
C          C       0.47238   0.01607   0.22183 
H          H       0.20534   0.79194   0.09067 
H          H       0.79466   0.20806   0.09067 
O          O       0.55403   0.96731   0.25610 
O          O       0.44597   0.03269   0.25610 
H          H       0.13983   0.74692   0.25040 
H          H       0.86017   0.25308   0.25040 
C          C       0.59530   0.99463   0.31863 
C          C       0.40470   0.00537   0.31863 
H          H       0.11629   0.67250   0.29756 
H          H       0.88371   0.32750   0.29756 
H          H       0.42650   0.76244   0.20650 
H          H       0.57350   0.23756   0.20650 
C          C       0.97107   0.51364   0.20255 
C          C       0.02893   0.48636   0.20255 
C          C       0.47165   0.84743   0.16046 
C          C       0.52835   0.15257   0.16046 
H          H       0.94834   0.52394   0.19956 
H          H       0.05166   0.47606   0.19956 
C          C       0.35680   0.64601   0.87101 
C          C       0.64320   0.35399   0.87101 
H          H       0.35155   0.83501   0.89403 
H          H       0.64845   0.16499   0.89403 
C          C       0.37598   0.68967   0.85970 
C          C       0.62402   0.31033   0.85970 
H          H       0.31896   0.75908   0.93058 
H          H       0.68104   0.24092   0.93058 
C          C       0.38226   0.62487   0.85692 
C          C       0.61774   0.37513   0.85692 
C          C       0.48717   0.89053   0.63923 
C          C       0.51283   0.10947   0.63923 
C          C       0.36584   0.58591   0.77347 
C          C       0.63416   0.41409   0.77347 
H          H       0.59436   0.01258   0.93091 
H          H       0.40564   0.98742   0.93091 
C          C       0.38961   0.56597   0.75153 
C          C       0.61039   0.43403   0.75153 
H          H       0.61541   0.01627   0.71659 
H          H       0.38459   0.98373   0.71659 
C          C       0.43151   0.58701   0.81019 
C          C       0.56849   0.41299   0.81019 
H          H       0.60931   0.97553   0.85955 
H          H       0.39069   0.02447   0.85955 
C          C       0.44793   0.62546   0.89430 
C          C       0.55207   0.37454   0.89430 
C          C       0.50193   0.83214   0.63258 
C          C       0.49807   0.16786   0.63258 
C          C       0.42347   0.64404   0.91942 
C          C       0.57653   0.35596   0.91942 
C          C       0.49211   0.79635   0.53478 
C          C       0.50789   0.20365   0.53478 
N          N       0.45587   0.56942   0.79028 
N          N       0.54413   0.43058   0.79028 
C          C       0.52078   0.78233   0.51728 
C          C       0.47922   0.21767   0.51728 
C          C       0.44230   0.53203   0.71110 
C          C       0.55770   0.46797   0.71110 
C          C       0.56043   0.80487   0.59102 
C          C       0.43957   0.19513   0.59102 
C          C       0.47105   0.51462   0.70173 
C          C       0.52895   0.48538   0.70173 
C          C       0.57140   0.84142   0.68260 
C          C       0.42860   0.15858   0.68260 
C          C       0.45645   0.47123   0.71208 
C          C       0.54355   0.52877   0.71208 
C          C       0.54236   0.85484   0.70430 
C          C       0.45764   0.14516   0.70430 
C          C       0.48563   0.45725   0.70129 
C          C       0.51437   0.54275   0.70129 
H          H       0.51683   0.90904   0.57473 
H          H       0.48317   0.09096   0.57473 
O          O       0.41345   0.44358   0.74223 
O          O       0.58655   0.55642   0.74223 
H          H       0.46245   0.77909   0.97137 
H          H       0.53755   0.22091   0.97137 
C          C       0.40049   0.40238   0.80300 
C          C       0.59951   0.59762   0.80300 
H          H       0.51245   0.75434   0.94381 
H          H       0.48755   0.24566   0.94381 
H          H       0.40963   0.70798   0.85481 
H          H       0.59037   0.29202   0.85481 
H          H       0.58275   0.79419   0.57613 
H          H       0.41725   0.20581   0.57613 
H          H       0.33456   0.57182   0.72505 
H          H       0.66544   0.42818   0.72505 
H          H       0.60216   0.85895   0.73977 
H          H       0.39784   0.14105   0.73977 
C          C       0.37363   0.52572   0.67518 
C          C       0.62637   0.47428   0.67518 
H          H       0.55121   0.88259   0.78049 
H          H       0.44879   0.11741   0.78049 
H          H       0.47971   0.64085   0.94258 
H          H       0.52029   0.35915   0.94258 
C          C       0.28904   0.64249   0.87356 
C          C       0.71096   0.35751   0.87356 
H          H       0.43689   0.67327   0.98923 
H          H       0.56311   0.32673   0.98923 
C          C       0.31300   0.62260   0.88221 
C          C       0.68700   0.37740   0.88221 
C          C       0.40140   0.51070   0.64589 
C          C       0.59860   0.48930   0.64589 
C          C       0.24239   0.61778   0.86510 
C          C       0.75761   0.38222   0.86510 
H          H       0.47482   0.42410   0.69836 
H          H       0.52518   0.57590   0.69836 
C          C       0.22013   0.63537   0.78873 
C          C       0.77987   0.36463   0.78873 
H          H       0.41905   0.40366   0.91697 
H          H       0.58095   0.59634   0.91697 
C          C       0.17636   0.61174   0.76393 
C          C       0.82364   0.38826   0.76393 
H          H       0.40344   0.38307   0.70111 
H          H       0.59656   0.61693   0.70111 
C          C       0.15524   0.56948   0.81839 
C          C       0.84476   0.43052   0.81839 
H          H       0.36706   0.38720   0.84059 
H          H       0.63294   0.61280   0.84059 
C          C       0.17686   0.55248   0.90090 
C          C       0.82314   0.44752   0.90090 
C          C       0.32808   0.49546   0.64773 
C          C       0.67192   0.50454   0.64773 
C          C       0.21987   0.57639   0.92593 
C          C       0.78013   0.42361   0.92593 
C          C       0.30186   0.50543   0.55252 
C          C       0.69814   0.49457   0.55252 
N          N       0.11339   0.54517   0.79571 
N          N       0.88661   0.45483   0.79571 
C          C       0.25934   0.47639   0.53276 
C          C       0.74066   0.52361   0.53276 
C          C       0.08968   0.55895   0.71744 
C          C       0.91032   0.44105   0.71744 
C          C       0.24259   0.43640   0.60286 
C          C       0.75741   0.56360   0.60286 
C          C       0.04354   0.52963   0.70409 
C          C       0.95646   0.47037   0.70409 
C          C       0.26836   0.42545   0.69306 
C          C       0.73164   0.57455   0.69306 
C          C       0.01412   0.54345   0.71316 
C          C       0.98588   0.45655   0.71316 
C          C       0.31071   0.45476   0.71624 
C          C       0.68929   0.54524   0.71624 
O          O       0.02874   0.58634   0.74238 
O          O       0.97126   0.41366   0.74238 
H          H       0.39040   0.48183   0.57531 
H          H       0.60960   0.51817   0.57531 
C          C       0.99997   0.59866   0.80274 
C          C       0.00003   0.40134   0.80274 
H          H       0.31391   0.53536   0.99214 
H          H       0.68609   0.46464   0.99214 
H          H       0.29779   0.58902   0.89175 
H          H       0.70221   0.41098   0.89175 
H          H       0.23953   0.48472   0.96041 
H          H       0.76047   0.51528   0.96041 
H          H       0.23771   0.66750   0.74939 
H          H       0.76229   0.33250   0.74939 
H          H       0.20973   0.41382   0.58615 
H          H       0.79027   0.58618   0.58615 
C          C       0.15225   0.62804   0.68854 
C          C       0.84775   0.37196   0.68854 
H          H       0.25543   0.39442   0.74726 
H          H       0.74457   0.60558   0.74726 
H          H       0.16019   0.52050   0.94697 
H          H       0.83981   0.47950   0.94697 
H          H       0.32985   0.44582   0.79022 
H          H       0.67015   0.55418   0.79022 
H          H       0.23504   0.56218   0.99440 
H          H       0.76496   0.43782   0.99440 
C          C       0.54301   0.02739   0.71018 
C          C       0.45699   0.97261   0.71018 
C          C       0.10942   0.60035   0.65685 
C          C       0.89058   0.39965   0.65685 
H          H       0.57636   0.04887   0.70751 
H          H       0.42364   0.95113   0.70751 
H          H       0.98280   0.57996   0.91658 
H          H       0.01720   0.42004   0.91658 
C          C       0.35160   0.70916   0.84918 
C          C       0.64840   0.29084   0.84918 
H          H       0.97764   0.59536   0.70056 
H          H       0.02236   0.40464   0.70056 
N          N       0.30914   0.68495   0.85643 
N          N       0.69086   0.31505   0.85643 
H          H       0.01777   0.63211   0.84042 
H          H       0.98223   0.36789   0.84042 
C          C       0.37112   0.75528   0.82364 
C          C       0.62888   0.24472   0.82364 
C          C       0.16803   0.67367   0.66008 
C          C       0.83197   0.32633   0.66008 
C          C       0.41098   0.77872   0.74823 
C          C       0.58902   0.22128   0.74823 
C          C       0.20471   0.69961   0.56692 
C          C       0.79529   0.30039   0.56692 
C          C       0.43050   0.82245   0.72812 
C          C       0.56950   0.17755   0.72812 
C          C       0.21832   0.74208   0.54394 
C          C       0.78168   0.25792   0.54394 
C          C       0.40840   0.84263   0.78208 
C          C       0.59160   0.15737   0.78208 
C          C       0.19495   0.75912   0.60984 
C          C       0.80505   0.24088   0.60984 
C          C       0.36826   0.81940   0.85235 
C          C       0.63174   0.18060   0.85235 
C          C       0.15798   0.73372   0.69921 
C          C       0.84202   0.26628   0.69921 
C          C       0.34974   0.77613   0.87294 
C          C       0.65026   0.22387   0.87294 
C          C       0.14467   0.69138   0.72486 
C          C       0.85533   0.30862   0.72486 
N          N       0.42657   0.88492   0.77184 
N          N       0.57343   0.11508   0.77184 
H          H       0.09178   0.61166   0.58662 
H          H       0.90822   0.38834   0.58662 
C          C       0.46544   0.90961   0.70515 
C          C       0.53456   0.09039   0.70515 
H          H       0.22299   0.68744   0.51106 
H          H       0.77701   0.31256   0.51106 
C          C       0.48402   0.95612   0.70726 
C          C       0.51598   0.04388   0.70726 
H          H       0.24673   0.76165   0.97275 
H          H       0.75327   0.23835   0.97275 
C          C       0.52762   0.98393   0.72183 
C          C       0.47238   0.01607   0.72183 
H          H       0.20534   0.79194   0.59067 
H          H       0.79466   0.20806   0.59067 
O          O       0.55403   0.96731   0.75610 
O          O       0.44597   0.03269   0.75610 
H          H       0.13983   0.74692   0.75040 
H          H       0.86017   0.25308   0.75040 
C          C       0.59530   0.99463   0.81863 
C          C       0.40470   0.00537   0.81863 
H          H       0.11629   0.67250   0.79756 
H          H       0.88371   0.32750   0.79756 
H          H       0.42650   0.76244   0.70651 
H          H       0.57350   0.23756   0.70651 
C          C       0.97107   0.51364   0.70255 
C          C       0.02893   0.48636   0.70255 
C          C       0.47165   0.84743   0.66046 
C          C       0.52835   0.15257   0.66046 
H          H       0.94834   0.52394   0.69956 
H          H       0.05166   0.47606   0.69956 
