data_crystal
 
_cell_length_a    36.48030
_cell_length_b    36.48030
_cell_length_c    9.25400
_cell_angle_alpha 90.00000
_cell_angle_beta  90.00000
_cell_angle_gamma 120.00000
 
_symmetry_space_group_name_Hall 'P 1'
_symmetry_space_group_name_H-M  'P 1'
 
loop_
_symmetry_equiv_pos_as_xyz
 'x,y,z' 
 
loop_
_atom_site_label
_atom_site_type_symbol
_atom_site_fract_x
_atom_site_fract_y
_atom_site_fract_z
C          C       0.35679   0.64549   0.38448 
C          C       0.35451   0.71130   0.38448 
C          C       0.28870   0.64321   0.38448 
C          C       0.64321   0.35451   0.38448 
C          C       0.64549   0.28870   0.38448 
C          C       0.71130   0.35679   0.38448 
H          H       0.47490   0.63079   0.46577 
H          H       0.36921   0.84411   0.46577 
H          H       0.15589   0.52510   0.46577 
H          H       0.52510   0.36921   0.46577 
H          H       0.63079   0.15589   0.46577 
H          H       0.84411   0.47490   0.46577 
C          C       0.37756   0.68990   0.38609 
C          C       0.31010   0.68766   0.38609 
C          C       0.31234   0.62244   0.38609 
C          C       0.62244   0.31010   0.38609 
C          C       0.68990   0.31234   0.38609 
C          C       0.68766   0.37756   0.38609 
H          H       0.43188   0.66402   0.01295 
H          H       0.33598   0.76786   0.01295 
H          H       0.23214   0.56812   0.01295 
H          H       0.56812   0.33598   0.01295 
H          H       0.66402   0.23214   0.01295 
H          H       0.76786   0.43188   0.01295 
C          C       0.38147   0.62347   0.36593 
C          C       0.37653   0.75800   0.36593 
C          C       0.24200   0.61853   0.36593 
C          C       0.61853   0.37653   0.36593 
C          C       0.62347   0.24200   0.36593 
C          C       0.75800   0.38147   0.36593 
C          C       0.40372   0.51759   0.12231 
C          C       0.48241   0.88613   0.12231 
C          C       0.11387   0.59628   0.12231 
C          C       0.59628   0.48241   0.12231 
C          C       0.51759   0.11387   0.12231 
C          C       0.88613   0.40372   0.12231 
C          C       0.36713   0.58899   0.27032 
C          C       0.41101   0.77814   0.27032 
C          C       0.22186   0.63287   0.27032 
C          C       0.63287   0.41101   0.27032 
C          C       0.58899   0.22186   0.27032 
C          C       0.77814   0.36713   0.27032 
H          H       0.47364   0.42304   0.19276 
H          H       0.57696   0.05060   0.19276 
H          H       0.94940   0.52636   0.19276 
H          H       0.52636   0.57696   0.19276 
H          H       0.42304   0.94940   0.19276 
H          H       0.05060   0.47364   0.19276 
C          C       0.39148   0.56965   0.24425 
C          C       0.43035   0.82183   0.24425 
C          C       0.17817   0.60852   0.24425 
C          C       0.60852   0.43035   0.24425 
C          C       0.56965   0.17817   0.24425 
C          C       0.82183   0.39148   0.24425 
H          H       0.41481   0.39701   0.35794 
H          H       0.60299   0.01780   0.35794 
H          H       0.98220   0.58519   0.35794 
H          H       0.58519   0.60299   0.35794 
H          H       0.39701   0.98220   0.35794 
H          H       0.01780   0.41481   0.35794 
C          C       0.43087   0.58541   0.31340 
C          C       0.41459   0.84546   0.31340 
C          C       0.15454   0.56913   0.31340 
C          C       0.56913   0.41459   0.31340 
C          C       0.58541   0.15454   0.31340 
C          C       0.84546   0.43087   0.31340 
H          H       0.40058   0.38539   0.16677 
H          H       0.61461   0.01519   0.16677 
H          H       0.98481   0.59942   0.16677 
H          H       0.59942   0.61461   0.16677 
H          H       0.38539   0.98481   0.16677 
H          H       0.01519   0.40058   0.16677 
C          C       0.44497   0.61919   0.41029 
C          C       0.38081   0.82578   0.41029 
C          C       0.17422   0.55503   0.41029 
C          C       0.55503   0.38081   0.41029 
C          C       0.61919   0.17422   0.41029 
C          C       0.82578   0.44497   0.41029 
H          H       0.36360   0.38555   0.29443 
H          H       0.61445   0.97805   0.29443 
H          H       0.02195   0.63640   0.29443 
H          H       0.63640   0.61445   0.29443 
H          H       0.38555   0.02195   0.29443 
H          H       0.97805   0.36360   0.29443 
C          C       0.42042   0.63805   0.43682 
C          C       0.36195   0.78237   0.43682 
C          C       0.21763   0.57958   0.43682 
C          C       0.57958   0.36195   0.43682 
C          C       0.63805   0.21763   0.43682 
C          C       0.78237   0.42042   0.43682 
C          C       0.61206   0.51687   0.01081 
C          C       0.48313   0.09519   0.01081 
C          C       0.90481   0.38794   0.01081 
C          C       0.38794   0.48313   0.01081 
C          C       0.51687   0.90481   0.01081 
C          C       0.09519   0.61206   0.01081 
N          N       0.45475   0.56711   0.28897 
N          N       0.43289   0.88764   0.28897 
N          N       0.11236   0.54525   0.28897 
N          N       0.54525   0.43289   0.28897 
N          N       0.56711   0.11236   0.28897 
N          N       0.88764   0.45475   0.28897 
C          C       0.65853   0.54754   0.03968 
C          C       0.45246   0.11099   0.03968 
C          C       0.88901   0.34147   0.03968 
C          C       0.34147   0.45246   0.03968 
C          C       0.54754   0.88901   0.03968 
C          C       0.11099   0.65853   0.03968 
C          C       0.44282   0.53371   0.19775 
C          C       0.46629   0.90911   0.19775 
C          C       0.09089   0.55718   0.19775 
C          C       0.55718   0.46629   0.19775 
C          C       0.53371   0.09089   0.19775 
C          C       0.90911   0.44282   0.19775 
C          C       0.68319   0.52386   0.02272 
C          C       0.47614   0.15933   0.02272 
C          C       0.84067   0.31681   0.02272 
C          C       0.31681   0.47614   0.02272 
C          C       0.52386   0.84067   0.02272 
C          C       0.15933   0.68319   0.02272 
C          C       0.47124   0.51534   0.19013 
C          C       0.48466   0.95590   0.19013 
C          C       0.04410   0.52876   0.19013 
C          C       0.52876   0.48466   0.19013 
C          C       0.51534   0.04410   0.19013 
C          C       0.95590   0.47124   0.19013 
O          O       0.66352   0.48267   0.08961 
O          O       0.51733   0.18085   0.08961 
O          O       0.81915   0.33648   0.08961 
O          O       0.33648   0.51733   0.08961 
O          O       0.48267   0.81915   0.08961 
O          O       0.18085   0.66352   0.08961 
C          C       0.45599   0.47155   0.20502 
C          C       0.52845   0.98444   0.20502 
C          C       0.01556   0.54401   0.20502 
C          C       0.54401   0.52845   0.20502 
C          C       0.47155   0.01556   0.20502 
C          C       0.98444   0.45599   0.20502 
H          H       0.60994   0.50270   0.40430 
H          H       0.49730   0.10724   0.40430 
H          H       0.89276   0.39006   0.40430 
H          H       0.39006   0.49730   0.40430 
H          H       0.50270   0.89276   0.40430 
H          H       0.10724   0.60994   0.40430 
C          C       0.48486   0.45664   0.19287 
C          C       0.54336   0.02822   0.19287 
C          C       0.97178   0.51514   0.19287 
C          C       0.51514   0.54336   0.19287 
C          C       0.45664   0.97178   0.19287 
C          C       0.02822   0.48486   0.19287 
H          H       0.59381   0.53339   0.00251 
H          H       0.46661   0.06042   0.00251 
H          H       0.93958   0.40619   0.00251 
H          H       0.40619   0.46661   0.00251 
H          H       0.53339   0.93958   0.00251 
H          H       0.06042   0.59381   0.00251 
O          O       0.41280   0.44481   0.23911 
O          O       0.55519   0.96799   0.23911 
O          O       0.03201   0.58720   0.23911 
O          O       0.58720   0.55519   0.23911 
O          O       0.44481   0.03201   0.23911 
O          O       0.96799   0.41280   0.23911 
H          H       0.66280   0.56068   0.15082 
H          H       0.43932   0.10212   0.15082 
H          H       0.89788   0.33720   0.15082 
H          H       0.33720   0.43932   0.15082 
H          H       0.56068   0.89788   0.15082 
H          H       0.10212   0.66280   0.15082 
C          C       0.39762   0.40101   0.26562 
C          C       0.59899   0.99661   0.26562 
C          C       0.00339   0.60238   0.26562 
C          C       0.60238   0.59899   0.26562 
C          C       0.40101   0.00339   0.26562 
C          C       0.99661   0.39762   0.26562 
H          H       0.67066   0.57419   0.46144 
H          H       0.42581   0.09647   0.46144 
H          H       0.90353   0.32934   0.46144 
H          H       0.32934   0.42581   0.46144 
H          H       0.57419   0.90353   0.46144 
H          H       0.09647   0.67066   0.46144 
H          H       0.41180   0.70789   0.38229 
H          H       0.29211   0.70391   0.38229 
H          H       0.29609   0.58820   0.38229 
H          H       0.58820   0.29211   0.38229 
H          H       0.70789   0.29609   0.38229 
H          H       0.70391   0.41180   0.38229 
H          H       0.71519   0.54354   0.07009 
H          H       0.45646   0.17165   0.07009 
H          H       0.82835   0.28481   0.07009 
H          H       0.28481   0.45646   0.07009 
H          H       0.54354   0.82835   0.07009 
H          H       0.17165   0.71519   0.07009 
H          H       0.33763   0.57817   0.21271 
H          H       0.42183   0.75946   0.21271 
H          H       0.24054   0.66237   0.21271 
H          H       0.66237   0.42183   0.21271 
H          H       0.57817   0.24054   0.21271 
H          H       0.75946   0.33763   0.21271 
H          H       0.68738   0.51996   0.40585 
H          H       0.48004   0.16742   0.40585 
H          H       0.83258   0.31262   0.40585 
H          H       0.31262   0.48004   0.40585 
H          H       0.51996   0.83258   0.40585 
H          H       0.16742   0.68738   0.40585 
C          C       0.37737   0.53484   0.15072 
C          C       0.46516   0.84253   0.15072 
C          C       0.15747   0.62263   0.15072 
C          C       0.62263   0.46516   0.15072 
C          C       0.53484   0.15747   0.15072 
C          C       0.84253   0.37737   0.15072 
C          C       0.35679   0.64549   0.88447 
C          C       0.35451   0.71130   0.88447 
C          C       0.28870   0.64321   0.88447 
C          C       0.64321   0.35451   0.88447 
C          C       0.64549   0.28870   0.88447 
C          C       0.71130   0.35679   0.88447 
H          H       0.47490   0.63079   0.96577 
H          H       0.36921   0.84411   0.96577 
H          H       0.15589   0.52510   0.96577 
H          H       0.52510   0.36921   0.96577 
H          H       0.63079   0.15589   0.96577 
H          H       0.84411   0.47490   0.96577 
C          C       0.37756   0.68990   0.88608 
C          C       0.31010   0.68766   0.88608 
C          C       0.31234   0.62244   0.88608 
C          C       0.62244   0.31010   0.88608 
C          C       0.68990   0.31234   0.88608 
C          C       0.68766   0.37756   0.88608 
H          H       0.43188   0.66402   0.51295 
H          H       0.33598   0.76786   0.51295 
H          H       0.23214   0.56812   0.51295 
H          H       0.56812   0.33598   0.51295 
H          H       0.66402   0.23214   0.51295 
H          H       0.76786   0.43188   0.51295 
C          C       0.38147   0.62347   0.86593 
C          C       0.37653   0.75800   0.86593 
C          C       0.24200   0.61853   0.86593 
C          C       0.61853   0.37653   0.86593 
C          C       0.62347   0.24200   0.86593 
C          C       0.75800   0.38147   0.86593 
C          C       0.40372   0.51759   0.62231 
C          C       0.48241   0.88613   0.62231 
C          C       0.11387   0.59628   0.62231 
C          C       0.59628   0.48241   0.62231 
C          C       0.51759   0.11387   0.62231 
C          C       0.88613   0.40372   0.62231 
C          C       0.36713   0.58899   0.77032 
C          C       0.41101   0.77814   0.77032 
C          C       0.22186   0.63287   0.77032 
C          C       0.63287   0.41101   0.77032 
C          C       0.58899   0.22186   0.77032 
C          C       0.77814   0.36713   0.77032 
H          H       0.47364   0.42304   0.69275 
H          H       0.57696   0.05060   0.69275 
H          H       0.94940   0.52636   0.69275 
H          H       0.52636   0.57696   0.69275 
H          H       0.42304   0.94940   0.69275 
H          H       0.05060   0.47364   0.69275 
C          C       0.39148   0.56965   0.74425 
C          C       0.43035   0.82183   0.74425 
C          C       0.17817   0.60852   0.74425 
C          C       0.60852   0.43035   0.74425 
C          C       0.56965   0.17817   0.74425 
C          C       0.82183   0.39148   0.74425 
H          H       0.41481   0.39701   0.85794 
H          H       0.60299   0.01780   0.85794 
H          H       0.98220   0.58519   0.85794 
H          H       0.58519   0.60299   0.85794 
H          H       0.39701   0.98220   0.85794 
H          H       0.01780   0.41481   0.85794 
C          C       0.43087   0.58541   0.81340 
C          C       0.41459   0.84546   0.81340 
C          C       0.15454   0.56913   0.81340 
C          C       0.56913   0.41459   0.81340 
C          C       0.58541   0.15454   0.81340 
C          C       0.84546   0.43087   0.81340 
H          H       0.40058   0.38539   0.66677 
H          H       0.61461   0.01519   0.66677 
H          H       0.98481   0.59942   0.66677 
H          H       0.59942   0.61461   0.66677 
H          H       0.38539   0.98481   0.66677 
H          H       0.01519   0.40058   0.66677 
C          C       0.44497   0.61919   0.91029 
C          C       0.38081   0.82578   0.91029 
C          C       0.17422   0.55503   0.91029 
C          C       0.55503   0.38081   0.91029 
C          C       0.61919   0.17422   0.91029 
C          C       0.82578   0.44497   0.91029 
H          H       0.36360   0.38555   0.79443 
H          H       0.61445   0.97805   0.79443 
H          H       0.02195   0.63640   0.79443 
H          H       0.63640   0.61445   0.79443 
H          H       0.38555   0.02195   0.79443 
H          H       0.97805   0.36360   0.79443 
C          C       0.42042   0.63805   0.93682 
C          C       0.36195   0.78237   0.93682 
C          C       0.21763   0.57958   0.93682 
C          C       0.57958   0.36195   0.93682 
C          C       0.63805   0.21763   0.93682 
C          C       0.78237   0.42042   0.93682 
C          C       0.61206   0.51687   0.51082 
C          C       0.48313   0.09519   0.51082 
C          C       0.90481   0.38794   0.51082 
C          C       0.38794   0.48313   0.51082 
C          C       0.51687   0.90481   0.51082 
C          C       0.09519   0.61206   0.51082 
N          N       0.45475   0.56711   0.78896 
N          N       0.43289   0.88764   0.78896 
N          N       0.11236   0.54525   0.78896 
N          N       0.54525   0.43289   0.78896 
N          N       0.56711   0.11236   0.78896 
N          N       0.88764   0.45475   0.78896 
C          C       0.65853   0.54754   0.53967 
C          C       0.45246   0.11099   0.53967 
C          C       0.88901   0.34147   0.53967 
C          C       0.34147   0.45246   0.53967 
C          C       0.54754   0.88901   0.53967 
C          C       0.11099   0.65853   0.53967 
C          C       0.44282   0.53371   0.69775 
C          C       0.46629   0.90911   0.69775 
C          C       0.09089   0.55718   0.69775 
C          C       0.55718   0.46629   0.69775 
C          C       0.53371   0.09089   0.69775 
C          C       0.90911   0.44282   0.69775 
C          C       0.68319   0.52386   0.52272 
C          C       0.47614   0.15933   0.52272 
C          C       0.84067   0.31681   0.52272 
C          C       0.31681   0.47614   0.52272 
C          C       0.52386   0.84067   0.52272 
C          C       0.15933   0.68319   0.52272 
C          C       0.47124   0.51534   0.69013 
C          C       0.48466   0.95590   0.69013 
C          C       0.04410   0.52876   0.69013 
C          C       0.52876   0.48466   0.69013 
C          C       0.51534   0.04410   0.69013 
C          C       0.95590   0.47124   0.69013 
O          O       0.66352   0.48267   0.58961 
O          O       0.51733   0.18085   0.58961 
O          O       0.81915   0.33648   0.58961 
O          O       0.33648   0.51733   0.58961 
O          O       0.48267   0.81915   0.58961 
O          O       0.18085   0.66352   0.58961 
C          C       0.45599   0.47155   0.70501 
C          C       0.52845   0.98444   0.70501 
C          C       0.01556   0.54401   0.70501 
C          C       0.54401   0.52845   0.70501 
C          C       0.47155   0.01556   0.70501 
C          C       0.98444   0.45599   0.70501 
H          H       0.60994   0.50270   0.90430 
H          H       0.49730   0.10724   0.90430 
H          H       0.89276   0.39006   0.90430 
H          H       0.39006   0.49730   0.90430 
H          H       0.50270   0.89276   0.90430 
H          H       0.10724   0.60994   0.90430 
C          C       0.48486   0.45664   0.69288 
C          C       0.54336   0.02822   0.69288 
C          C       0.97178   0.51514   0.69288 
C          C       0.51514   0.54336   0.69288 
C          C       0.45664   0.97178   0.69288 
C          C       0.02822   0.48486   0.69288 
H          H       0.59381   0.53339   0.50251 
H          H       0.46661   0.06042   0.50251 
H          H       0.93958   0.40619   0.50251 
H          H       0.40619   0.46661   0.50251 
H          H       0.53339   0.93958   0.50251 
H          H       0.06042   0.59381   0.50251 
O          O       0.41280   0.44481   0.73910 
O          O       0.55519   0.96799   0.73910 
O          O       0.03201   0.58720   0.73910 
O          O       0.58720   0.55519   0.73910 
O          O       0.44481   0.03201   0.73910 
O          O       0.96799   0.41280   0.73910 
H          H       0.66280   0.56068   0.65082 
H          H       0.43932   0.10212   0.65082 
H          H       0.89788   0.33720   0.65082 
H          H       0.33720   0.43932   0.65082 
H          H       0.56068   0.89788   0.65082 
H          H       0.10212   0.66280   0.65082 
C          C       0.39762   0.40101   0.76562 
C          C       0.59899   0.99661   0.76562 
C          C       0.00339   0.60238   0.76562 
C          C       0.60238   0.59899   0.76562 
C          C       0.40101   0.00339   0.76562 
C          C       0.99661   0.39762   0.76562 
H          H       0.67066   0.57419   0.96144 
H          H       0.42581   0.09647   0.96144 
H          H       0.90353   0.32934   0.96144 
H          H       0.32934   0.42581   0.96144 
H          H       0.57419   0.90353   0.96144 
H          H       0.09647   0.67066   0.96144 
H          H       0.41180   0.70789   0.88230 
H          H       0.29211   0.70391   0.88230 
H          H       0.29609   0.58820   0.88230 
H          H       0.58820   0.29211   0.88230 
H          H       0.70789   0.29609   0.88230 
H          H       0.70391   0.41180   0.88230 
H          H       0.71519   0.54354   0.57009 
H          H       0.45646   0.17165   0.57009 
H          H       0.82835   0.28481   0.57009 
H          H       0.28481   0.45646   0.57009 
H          H       0.54354   0.82835   0.57009 
H          H       0.17165   0.71519   0.57009 
H          H       0.33763   0.57817   0.71271 
H          H       0.42183   0.75946   0.71271 
H          H       0.24054   0.66237   0.71271 
H          H       0.66237   0.42183   0.71271 
H          H       0.57817   0.24054   0.71271 
H          H       0.75946   0.33763   0.71271 
H          H       0.68738   0.51996   0.90585 
H          H       0.48004   0.16742   0.90585 
H          H       0.83258   0.31262   0.90585 
H          H       0.31262   0.48004   0.90585 
H          H       0.51996   0.83258   0.90585 
H          H       0.16742   0.68738   0.90585 
C          C       0.37737   0.53484   0.65072 
C          C       0.46516   0.84253   0.65072 
C          C       0.15747   0.62263   0.65072 
C          C       0.62263   0.46516   0.65072 
C          C       0.53484   0.15747   0.65072 
C          C       0.84253   0.37737   0.65072 
