data_crystal

_cell_length_a    36.78680
_cell_length_b    36.78680
_cell_length_c    7.73200
_cell_angle_alpha 90.00000
_cell_angle_beta  90.00000
_cell_angle_gamma 120.00000

_space_group_name_Hall 'P 1'
_space_group_name_H-M_alt  'P 1'

loop_
_symmetry_equiv_pos_as_xyz
'x,y,z' 

loop_
_atom_site_label
_atom_site_type_symbol
_atom_site_fract_x
_atom_site_fract_y
_atom_site_fract_z
C          C       0.35747   0.64636   0.38178 
C          C       0.35364   0.71111   0.38178 
C          C       0.28889   0.64253   0.38178 
C          C       0.64253   0.35364   0.38178 
C          C       0.64636   0.28889   0.38178 
C          C       0.71111   0.35747   0.38178 
H          H       0.48165   0.64125   0.42960 
H          H       0.35875   0.84040   0.42960 
H          H       0.15960   0.51835   0.42960 
H          H       0.51835   0.35875   0.42960 
H          H       0.64125   0.15960   0.42960 
H          H       0.84040   0.48165   0.42960 
C          C       0.37706   0.69037   0.38459 
C          C       0.30963   0.68669   0.38459 
C          C       0.31331   0.62294   0.38459 
C          C       0.62294   0.30963   0.38459 
C          C       0.69037   0.31331   0.38459 
C          C       0.68669   0.37706   0.38459 
H          H       0.43860   0.67303   0.49326 
H          H       0.32697   0.76557   0.49326 
H          H       0.23443   0.56140   0.49326 
H          H       0.56140   0.32697   0.49326 
H          H       0.67303   0.23443   0.49326 
H          H       0.76557   0.43860   0.49326 
C          C       0.38305   0.62517   0.36058 
C          C       0.37483   0.75788   0.36058 
C          C       0.24212   0.61695   0.36058 
C          C       0.61695   0.37483   0.36058 
C          C       0.62517   0.24212   0.36058 
C          C       0.75788   0.38305   0.36058 
C          C       0.40051   0.50984   0.14269 
C          C       0.49016   0.89067   0.14269 
C          C       0.10933   0.59949   0.14269 
C          C       0.59949   0.49016   0.14269 
C          C       0.50984   0.10933   0.14269 
C          C       0.89067   0.40051   0.14269 
C          C       0.36622   0.58621   0.27487 
C          C       0.41379   0.78001   0.27487 
C          C       0.21999   0.63378   0.27487 
C          C       0.63378   0.41379   0.27487 
C          C       0.58621   0.21999   0.27487 
C          C       0.78001   0.36622   0.27487 
H          H       0.47245   0.42324   0.17539 
H          H       0.57676   0.04921   0.17539 
H          H       0.95079   0.52755   0.17539 
H          H       0.52755   0.57676   0.17539 
H          H       0.42324   0.95079   0.17539 
H          H       0.04921   0.47245   0.17539 
C          C       0.38992   0.56618   0.24805 
C          C       0.43382   0.82374   0.24805 
C          C       0.17626   0.61008   0.24805 
C          C       0.61008   0.43382   0.24805 
C          C       0.56618   0.17626   0.24805 
C          C       0.82374   0.38992   0.24805 
C          C       0.32713   0.49525   0.15315 
C          C       0.50475   0.83188   0.15315 
C          C       0.16812   0.67287   0.15315 
C          C       0.67287   0.50475   0.15315 
C          C       0.49525   0.16812   0.15315 
C          C       0.83188   0.32713   0.15315 
C          C       0.43253   0.58763   0.29926 
C          C       0.41237   0.84490   0.29926 
C          C       0.15510   0.56747   0.29926 
C          C       0.56747   0.41237   0.29926 
C          C       0.58763   0.15510   0.29926 
C          C       0.84490   0.43253   0.29926 
C          C       0.30064   0.50514   0.05809 
C          C       0.49486   0.79550   0.05809 
C          C       0.20450   0.69936   0.05809 
C          C       0.69936   0.49486   0.05809 
C          C       0.50514   0.20450   0.05809 
C          C       0.79550   0.30064   0.05809 
C          C       0.44945   0.62603   0.38518 
C          C       0.37397   0.82342   0.38518 
C          C       0.17658   0.55055   0.38518 
C          C       0.55055   0.37397   0.38518 
C          C       0.62603   0.17658   0.38518 
C          C       0.82342   0.44945   0.38518 
C          C       0.25772   0.47645   0.04375 
C          C       0.52355   0.78127   0.04375 
C          C       0.21873   0.74228   0.04375 
C          C       0.74228   0.52355   0.04375 
C          C       0.47645   0.21873   0.04375 
C          C       0.78127   0.25772   0.04375 
C          C       0.42483   0.64425   0.41915 
C          C       0.35575   0.78058   0.41915 
C          C       0.21942   0.57517   0.41915 
C          C       0.57517   0.35575   0.41915 
C          C       0.64425   0.21942   0.41915 
C          C       0.78058   0.42483   0.41915 
C          C       0.24085   0.43676   0.11868 
C          C       0.56324   0.80409   0.11868 
C          C       0.19591   0.75915   0.11868 
C          C       0.75915   0.56324   0.11868 
C          C       0.43676   0.19591   0.11868 
C          C       0.80409   0.24085   0.11868 
N          N       0.45719   0.57053   0.27073 
N          N       0.42947   0.88666   0.27073 
N          N       0.11334   0.54281   0.27073 
N          N       0.54281   0.42947   0.27073 
N          N       0.57053   0.11334   0.27073 
N          N       0.88666   0.45719   0.27073 
C          C       0.26689   0.42580   0.20835 
C          C       0.57420   0.84109   0.20835 
C          C       0.15891   0.73311   0.20835 
C          C       0.73311   0.57420   0.20835 
C          C       0.42580   0.15891   0.20835 
C          C       0.84109   0.26689   0.20835 
C          C       0.44275   0.53262   0.19335 
C          C       0.46738   0.91013   0.19335 
C          C       0.08987   0.55725   0.19335 
C          C       0.55725   0.46738   0.19335 
C          C       0.53262   0.08987   0.19335 
C          C       0.91013   0.44275   0.19335 
C          C       0.30964   0.45486   0.22645 
C          C       0.54514   0.85478   0.22645 
C          C       0.14522   0.69036   0.22645 
C          C       0.69036   0.54514   0.22645 
C          C       0.45486   0.14522   0.22645 
C          C       0.85478   0.30964   0.22645 
C          C       0.47164   0.51551   0.17505 
C          C       0.48449   0.95613   0.17505 
C          C       0.04387   0.52836   0.17505 
C          C       0.52836   0.48449   0.17505 
C          C       0.51551   0.04387   0.17505 
C          C       0.95613   0.47164   0.17505 
H          H       0.38847   0.47971   0.08001 
H          H       0.52029   0.90876   0.08001 
H          H       0.09124   0.61153   0.08001 
H          H       0.61153   0.52029   0.08001 
H          H       0.47971   0.09124   0.08001 
H          H       0.90876   0.38847   0.08001 
C          C       0.45674   0.47203   0.17368 
C          C       0.52797   0.98471   0.17368 
C          C       0.01529   0.54326   0.17368 
C          C       0.54326   0.52797   0.17368 
C          C       0.47203   0.01529   0.17368 
C          C       0.98471   0.45674   0.17368 
H          H       0.31293   0.53472   0.49301 
H          H       0.46528   0.77821   0.49301 
H          H       0.22179   0.68707   0.49301 
H          H       0.68707   0.46528   0.49301 
H          H       0.53472   0.22179   0.49301 
H          H       0.77821   0.31293   0.49301 
C          C       0.48479   0.45684   0.17297 
C          C       0.54316   0.02795   0.17297 
C          C       0.97205   0.51521   0.17297 
C          C       0.51521   0.54316   0.17297 
C          C       0.45684   0.97205   0.17297 
C          C       0.02795   0.48479   0.17297 
H          H       0.23773   0.48467   0.47080 
H          H       0.51533   0.75306   0.47080 
H          H       0.24694   0.76227   0.47080 
H          H       0.76227   0.51533   0.47080 
H          H       0.48467   0.24694   0.47080 
H          H       0.75306   0.23773   0.47080 
H          H       0.41078   0.70854   0.38331 
H          H       0.29146   0.70224   0.38331 
H          H       0.29776   0.58922   0.38331 
H          H       0.58922   0.29146   0.38331 
H          H       0.70854   0.29776   0.38331 
H          H       0.70224   0.41078   0.38331 
H          H       0.20768   0.41439   0.10596 
H          H       0.58561   0.79329   0.10596 
H          H       0.20671   0.79232   0.10596 
H          H       0.79232   0.58561   0.10596 
H          H       0.41439   0.20671   0.10596 
H          H       0.79329   0.20768   0.10596 
H          H       0.33481   0.57211   0.22732 
H          H       0.42789   0.76270   0.22732 
H          H       0.23730   0.66519   0.22732 
H          H       0.66519   0.42789   0.22732 
H          H       0.57211   0.23730   0.22732 
H          H       0.76270   0.33481   0.22732 
H          H       0.25384   0.39506   0.26694 
H          H       0.60494   0.85878   0.26694 
H          H       0.14122   0.74616   0.26694 
H          H       0.74616   0.60494   0.26694 
H          H       0.39506   0.14122   0.26694 
H          H       0.85878   0.25384   0.26694 
C          C       0.37308   0.52532   0.17489 
C          C       0.47468   0.84776   0.17489 
C          C       0.15224   0.62692   0.17489 
C          C       0.62692   0.47468   0.17489 
C          C       0.52532   0.15224   0.17489 
C          C       0.84776   0.37308   0.17489 
H          H       0.32903   0.44615   0.30108 
H          H       0.55385   0.88288   0.30108 
H          H       0.11712   0.67097   0.30108 
H          H       0.67097   0.55385   0.30108 
H          H       0.44615   0.11712   0.30108 
H          H       0.88288   0.32903   0.30108 
H          H       0.97882   0.42456   0.17368 
H          H       0.46329   0.03348   0.17368 
H          H       0.42338   0.45680   0.17368 
H          H       0.57516   0.54865   0.17368 
H          H       0.03515   0.58942   0.17368 
H          H       0.55130   0.97190   0.17368 
C          C       0.35747   0.64636   0.88178 
C          C       0.35364   0.71111   0.88178 
C          C       0.28889   0.64253   0.88178 
C          C       0.64253   0.35364   0.88178 
C          C       0.64636   0.28889   0.88178 
C          C       0.71111   0.35747   0.88178 
H          H       0.48165   0.64125   0.92960 
H          H       0.35875   0.84040   0.92960 
H          H       0.15960   0.51835   0.92960 
H          H       0.51835   0.35875   0.92960 
H          H       0.64125   0.15960   0.92960 
H          H       0.84040   0.48165   0.92960 
C          C       0.37706   0.69037   0.88459 
C          C       0.30963   0.68669   0.88459 
C          C       0.31331   0.62294   0.88459 
C          C       0.62294   0.30963   0.88459 
C          C       0.69037   0.31331   0.88459 
C          C       0.68669   0.37706   0.88459 
H          H       0.43860   0.67303   0.99326 
H          H       0.32697   0.76557   0.99326 
H          H       0.23443   0.56140   0.99326 
H          H       0.56140   0.32697   0.99326 
H          H       0.67303   0.23443   0.99326 
H          H       0.76557   0.43860   0.99326 
C          C       0.38305   0.62517   0.86058 
C          C       0.37483   0.75788   0.86058 
C          C       0.24212   0.61695   0.86058 
C          C       0.61695   0.37483   0.86058 
C          C       0.62517   0.24212   0.86058 
C          C       0.75788   0.38305   0.86058 
C          C       0.40051   0.50984   0.64269 
C          C       0.49016   0.89067   0.64269 
C          C       0.10933   0.59949   0.64269 
C          C       0.59949   0.49016   0.64269 
C          C       0.50984   0.10933   0.64269 
C          C       0.89067   0.40051   0.64269 
C          C       0.36622   0.58621   0.77487 
C          C       0.41379   0.78001   0.77487 
C          C       0.21999   0.63378   0.77487 
C          C       0.63378   0.41379   0.77487 
C          C       0.58621   0.21999   0.77487 
C          C       0.78001   0.36622   0.77487 
H          H       0.47245   0.42324   0.67539 
H          H       0.57676   0.04921   0.67539 
H          H       0.95079   0.52755   0.67539 
H          H       0.52755   0.57676   0.67539 
H          H       0.42324   0.95079   0.67539 
H          H       0.04921   0.47245   0.67539 
C          C       0.38992   0.56618   0.74805 
C          C       0.43382   0.82374   0.74805 
C          C       0.17626   0.61008   0.74805 
C          C       0.61008   0.43382   0.74805 
C          C       0.56618   0.17626   0.74805 
C          C       0.82374   0.38992   0.74805 
C          C       0.32713   0.49525   0.65315 
C          C       0.50475   0.83188   0.65315 
C          C       0.16812   0.67287   0.65315 
C          C       0.67287   0.50475   0.65315 
C          C       0.49525   0.16812   0.65315 
C          C       0.83188   0.32713   0.65315 
C          C       0.43253   0.58763   0.79926 
C          C       0.41237   0.84490   0.79926 
C          C       0.15510   0.56747   0.79926 
C          C       0.56747   0.41237   0.79926 
C          C       0.58763   0.15510   0.79926 
C          C       0.84490   0.43253   0.79926 
C          C       0.30064   0.50514   0.55809 
C          C       0.49486   0.79550   0.55809 
C          C       0.20450   0.69936   0.55809 
C          C       0.69936   0.49486   0.55809 
C          C       0.50514   0.20450   0.55809 
C          C       0.79550   0.30064   0.55809 
C          C       0.44945   0.62603   0.88518 
C          C       0.37397   0.82342   0.88518 
C          C       0.17658   0.55055   0.88518 
C          C       0.55055   0.37397   0.88518 
C          C       0.62603   0.17658   0.88518 
C          C       0.82342   0.44945   0.88518 
C          C       0.25772   0.47645   0.54375 
C          C       0.52355   0.78127   0.54375 
C          C       0.21873   0.74228   0.54375 
C          C       0.74228   0.52355   0.54375 
C          C       0.47645   0.21873   0.54375 
C          C       0.78127   0.25772   0.54375 
C          C       0.42483   0.64425   0.91915 
C          C       0.35575   0.78058   0.91915 
C          C       0.21942   0.57517   0.91915 
C          C       0.57517   0.35575   0.91915 
C          C       0.64425   0.21942   0.91915 
C          C       0.78058   0.42483   0.91915 
C          C       0.24085   0.43676   0.61868 
C          C       0.56324   0.80409   0.61868 
C          C       0.19591   0.75915   0.61868 
C          C       0.75915   0.56324   0.61868 
C          C       0.43676   0.19591   0.61868 
C          C       0.80409   0.24085   0.61868 
N          N       0.45719   0.57053   0.77073 
N          N       0.42947   0.88666   0.77073 
N          N       0.11334   0.54281   0.77073 
N          N       0.54281   0.42947   0.77073 
N          N       0.57053   0.11334   0.77073 
N          N       0.88666   0.45719   0.77073 
C          C       0.26689   0.42580   0.70835 
C          C       0.57420   0.84109   0.70835 
C          C       0.15891   0.73311   0.70835 
C          C       0.73311   0.57420   0.70835 
C          C       0.42580   0.15891   0.70835 
C          C       0.84109   0.26689   0.70835 
C          C       0.44275   0.53262   0.69335 
C          C       0.46738   0.91013   0.69335 
C          C       0.08987   0.55725   0.69335 
C          C       0.55725   0.46738   0.69335 
C          C       0.53262   0.08987   0.69335 
C          C       0.91013   0.44275   0.69335 
C          C       0.30964   0.45486   0.72645 
C          C       0.54514   0.85478   0.72645 
C          C       0.14522   0.69036   0.72645 
C          C       0.69036   0.54514   0.72645 
C          C       0.45486   0.14522   0.72645 
C          C       0.85478   0.30964   0.72645 
C          C       0.47164   0.51551   0.67505 
C          C       0.48449   0.95613   0.67505 
C          C       0.04387   0.52836   0.67505 
C          C       0.52836   0.48449   0.67505 
C          C       0.51551   0.04387   0.67505 
C          C       0.95613   0.47164   0.67505 
H          H       0.38847   0.47971   0.58001 
H          H       0.52029   0.90876   0.58001 
H          H       0.09124   0.61153   0.58001 
H          H       0.61153   0.52029   0.58001 
H          H       0.47971   0.09124   0.58001 
H          H       0.90876   0.38847   0.58001 
C          C       0.45674   0.47203   0.67368 
C          C       0.52797   0.98471   0.67368 
C          C       0.01529   0.54326   0.67368 
C          C       0.54326   0.52797   0.67368 
C          C       0.47203   0.01529   0.67368 
C          C       0.98471   0.45674   0.67368 
H          H       0.31293   0.53472   0.99301 
H          H       0.46528   0.77821   0.99301 
H          H       0.22179   0.68707   0.99301 
H          H       0.68707   0.46528   0.99301 
H          H       0.53472   0.22179   0.99301 
H          H       0.77821   0.31293   0.99301 
C          C       0.48479   0.45684   0.67297 
C          C       0.54316   0.02795   0.67297 
C          C       0.97205   0.51521   0.67297 
C          C       0.51521   0.54316   0.67297 
C          C       0.45684   0.97205   0.67297 
C          C       0.02795   0.48479   0.67297 
H          H       0.23773   0.48467   0.97080 
H          H       0.51533   0.75306   0.97080 
H          H       0.24694   0.76227   0.97080 
H          H       0.76227   0.51533   0.97080 
H          H       0.48467   0.24694   0.97080 
H          H       0.75306   0.23773   0.97080 
H          H       0.41078   0.70854   0.88331 
H          H       0.29146   0.70224   0.88331 
H          H       0.29776   0.58922   0.88331 
H          H       0.58922   0.29146   0.88331 
H          H       0.70854   0.29776   0.88331 
H          H       0.70224   0.41078   0.88331 
H          H       0.20768   0.41439   0.60596 
H          H       0.58561   0.79329   0.60596 
H          H       0.20671   0.79232   0.60596 
H          H       0.79232   0.58561   0.60596 
H          H       0.41439   0.20671   0.60596 
H          H       0.79329   0.20768   0.60596 
H          H       0.33481   0.57211   0.72732 
H          H       0.42789   0.76270   0.72732 
H          H       0.23730   0.66519   0.72732 
H          H       0.66519   0.42789   0.72732 
H          H       0.57211   0.23730   0.72732 
H          H       0.76270   0.33481   0.72732 
H          H       0.25384   0.39506   0.76694 
H          H       0.60494   0.85878   0.76694 
H          H       0.14122   0.74616   0.76694 
H          H       0.74616   0.60494   0.76694 
H          H       0.39506   0.14122   0.76694 
H          H       0.85878   0.25384   0.76694 
C          C       0.37308   0.52532   0.67489 
C          C       0.47468   0.84776   0.67489 
C          C       0.15224   0.62692   0.67489 
C          C       0.62692   0.47468   0.67489 
C          C       0.52532   0.15224   0.67489 
C          C       0.84776   0.37308   0.67489 
H          H       0.32903   0.44615   0.80108 
H          H       0.55385   0.88288   0.80108 
H          H       0.11712   0.67097   0.80108 
H          H       0.67097   0.55385   0.80108 
H          H       0.44615   0.11712   0.80108 
H          H       0.88288   0.32903   0.80108 
H          H       0.97882   0.42456   0.67368 
H          H       0.46329   0.03348   0.67368 
H          H       0.42338   0.45680   0.67368 
H          H       0.57516   0.54865   0.67368 
H          H       0.03515   0.58942   0.67368 
H          H       0.55130   0.97190   0.67368 
