data_crystal

_cell_length_a    14.44000
_cell_length_b    47.70000
_cell_length_c    6.79000
_cell_angle_alpha 90.00000
_cell_angle_beta  91.21000
_cell_angle_gamma 90.00000

_space_group_name_Hall 'P 1'
_space_group_name_H-M_alt  'P 1'

loop_
_symmetry_equiv_pos_as_xyz
'x,y,z' 

loop_
_atom_site_label
_atom_site_type_symbol
_atom_site_fract_x
_atom_site_fract_y
_atom_site_fract_z
S          S       0.90788   0.02815   0.65546 
C          C       0.95930   0.06118   0.72490 
C          C       0.91037   0.08740   0.66933 
C          C       0.89343   0.10789   0.81261 
C          C       0.86521   0.13470   0.75675 
C          C       0.84838   0.14104   0.55718 
C          C       0.85793   0.11997   0.41548 
C          C       0.88981   0.09333   0.47062 
N          N       0.81615   0.16826   0.49833 
C          C       0.80228   0.21845   0.53019 
C          C       0.19293   0.23057   0.51143 
C          C       0.84643   0.19139   0.57745 
C          C       0.85029   0.24346   0.56962 
H          H       0.90705   0.10350   0.96693 
H          H       0.85599   0.15043   0.86945 
H          H       0.32712   0.13670   0.28941 
H          H       0.39070   0.09002   0.37077 
H          H       0.15425   0.21153   0.48144 
H          H       0.90390   0.19101   0.68293 
H          H       0.92112   0.25697   0.12540 
S          S       0.90640   0.53950   0.16073 
C          C       0.95834   0.57251   0.22874 
C          C       0.90747   0.59874   0.18245 
C          C       0.89383   0.61872   0.33096 
C          C       0.86194   0.64544   0.28311 
C          C       0.83825   0.65225   0.08724 
C          C       0.84562   0.63174   0.94072 
C          C       0.88081   0.60515   0.98748 
N          N       0.80144   0.67932   0.03798 
C          C       0.78542   0.72937   0.07976 
C          C       0.21022   0.71969   0.95944 
C          C       0.83176   0.70237   0.11816 
C          C       0.83314   0.75437   0.12043 
H          H       0.91198   0.61399   0.48298 
H          H       0.85472   0.66068   0.39956 
H          H       0.34393   0.62454   0.76169 
H          H       0.40217   0.57780   0.85776 
H          H       0.17142   0.70071   0.92909 
H          H       0.89209   0.70204   0.21609 
H          H       0.90421   0.74604   0.67467 
S          S       0.09195   0.02814   0.89553 
C          C       0.04053   0.06118   0.82609 
C          C       0.08945   0.08740   0.88168 
C          C       0.10640   0.10789   0.73840 
C          C       0.13460   0.13470   0.79428 
C          C       0.15144   0.14104   0.99385 
C          C       0.14189   0.11996   0.13554 
C          C       0.11002   0.09332   0.08039 
N          N       0.18365   0.16826   0.05271 
C          C       0.19751   0.21845   0.02087 
C          C       0.80688   0.23057   0.03964 
C          C       0.15337   0.19139   0.97360 
C          C       0.14950   0.24346   0.98143 
H          H       0.09277   0.10350   0.58409 
H          H       0.14382   0.15043   0.68158 
H          H       0.67269   0.13671   0.26167 
H          H       0.60910   0.09003   0.18032 
H          H       0.84556   0.21153   0.06963 
H          H       0.09591   0.19101   0.86812 
H          H       0.07868   0.25697   0.42568 
S          S       0.09339   0.53950   0.39038 
C          C       0.04146   0.57251   0.32236 
C          C       0.09234   0.59874   0.36864 
C          C       0.10598   0.61872   0.22013 
C          C       0.13788   0.64544   0.26796 
C          C       0.16156   0.65225   0.46384 
C          C       0.15418   0.63174   0.61036 
C          C       0.11899   0.60515   0.56361 
N          N       0.19837   0.67932   0.51309 
C          C       0.21439   0.72937   0.47130 
C          C       0.78957   0.71969   0.59161 
C          C       0.16805   0.70237   0.43290 
C          C       0.16667   0.75436   0.43063 
H          H       0.08783   0.61399   0.06810 
H          H       0.14510   0.66068   0.15151 
H          H       0.65588   0.62454   0.78933 
H          H       0.59765   0.57779   0.69324 
H          H       0.82838   0.70071   0.62197 
H          H       0.10772   0.70203   0.33498 
H          H       0.09557   0.74604   0.87640 
S          S       0.09340   0.96042   0.89033 
C          C       0.04146   0.92741   0.82232 
C          C       0.09233   0.90117   0.86861 
C          C       0.10596   0.88120   0.72011 
C          C       0.13786   0.85448   0.76795 
C          C       0.16154   0.84767   0.96383 
C          C       0.15417   0.86818   0.11034 
C          C       0.11899   0.89477   0.06358 
N          N       0.19835   0.82059   0.01308 
C          C       0.21438   0.77055   0.97130 
C          C       0.78957   0.78023   0.09162 
C          C       0.16803   0.79755   0.93290 
C          C       0.16666   0.74555   0.93063 
H          H       0.08782   0.88593   0.56808 
H          H       0.14508   0.83924   0.65151 
H          H       0.65586   0.87538   0.28937 
H          H       0.59762   0.92212   0.19330 
H          H       0.82838   0.79921   0.12198 
H          H       0.10771   0.79788   0.83498 
H          H       0.09558   0.75388   0.37640 
S          S       0.09192   0.47177   0.39560 
C          C       0.04050   0.43874   0.32616 
C          C       0.08942   0.41252   0.38173 
C          C       0.10637   0.39203   0.23845 
C          C       0.13458   0.36522   0.29432 
C          C       0.15142   0.35888   0.49389 
C          C       0.14187   0.37995   0.63558 
C          C       0.10999   0.40659   0.58044 
N          N       0.18364   0.33166   0.55273 
C          C       0.19751   0.28147   0.52088 
C          C       0.80687   0.26935   0.53964 
C          C       0.15337   0.30853   0.47362 
C          C       0.14951   0.25646   0.48144 
H          H       0.09274   0.39642   0.08413 
H          H       0.14380   0.34949   0.18161 
H          H       0.67267   0.36322   0.76165 
H          H       0.60910   0.40990   0.68029 
H          H       0.84555   0.28839   0.56962 
H          H       0.09590   0.30890   0.36813 
H          H       0.07868   0.24295   0.92567 
S          S       0.90641   0.96042   0.66068 
C          C       0.95834   0.92741   0.72870 
C          C       0.90746   0.90118   0.68243 
C          C       0.89382   0.88120   0.83094 
C          C       0.86192   0.85448   0.78310 
C          C       0.83823   0.84767   0.58723 
C          C       0.84561   0.86818   0.44070 
C          C       0.88080   0.89477   0.48746 
N          N       0.80142   0.82060   0.53798 
C          C       0.78541   0.77055   0.57976 
C          C       0.21022   0.78023   0.45945 
C          C       0.83175   0.79755   0.61816 
C          C       0.83313   0.74556   0.62043 
H          H       0.91196   0.88593   0.98296 
H          H       0.85469   0.83924   0.89955 
H          H       0.34391   0.87538   0.26173 
H          H       0.40214   0.92213   0.35782 
H          H       0.17142   0.79920   0.42909 
H          H       0.89207   0.79789   0.71609 
H          H       0.90422   0.75388   0.17467 
S          S       0.90785   0.47177   0.15553 
C          C       0.95927   0.43874   0.22497 
C          C       0.91034   0.41252   0.16938 
C          C       0.89340   0.39203   0.31266 
C          C       0.86519   0.36522   0.25678 
C          C       0.84836   0.35888   0.05721 
C          C       0.85790   0.37995   0.91553 
C          C       0.88978   0.40659   0.97067 
N          N       0.81614   0.33165   0.99835 
C          C       0.80228   0.28146   0.03020 
C          C       0.19292   0.26935   0.01142 
C          C       0.84642   0.30853   0.07746 
C          C       0.85029   0.25646   0.06963 
H          H       0.90703   0.39642   0.46698 
H          H       0.85597   0.34949   0.36948 
H          H       0.32711   0.36321   0.78940 
H          H       0.39070   0.40989   0.87074 
H          H       0.15423   0.28839   0.98144 
H          H       0.90389   0.30891   0.18295 
H          H       0.92111   0.24295   0.62539 
C          C       0.99991   0.00840   0.77550 
C          C       0.99989   0.51976   0.27556 
C          C       0.99991   0.98016   0.77550 
C          C       0.99989   0.49152   0.27557 
S          S       0.40640   0.03950   0.66073 
C          C       0.45834   0.07251   0.72874 
C          C       0.40747   0.09874   0.68245 
C          C       0.39383   0.11872   0.83096 
C          C       0.36194   0.14544   0.78311 
C          C       0.33825   0.15225   0.58724 
C          C       0.34562   0.13174   0.44072 
C          C       0.38081   0.10515   0.48748 
N          N       0.30144   0.17932   0.53798 
C          C       0.28542   0.22937   0.57976 
C          C       0.71022   0.21969   0.45944 
C          C       0.33176   0.20237   0.61816 
C          C       0.33314   0.25437   0.62043 
H          H       0.41198   0.11399   0.98298 
H          H       0.35472   0.16068   0.89956 
H          H       0.84393   0.12454   0.26169 
H          H       0.90217   0.07780   0.35776 
H          H       0.67142   0.20071   0.42909 
H          H       0.39209   0.20204   0.71609 
H          H       0.40421   0.24604   0.17467 
S          S       0.40788   0.52815   0.15546 
C          C       0.45930   0.56118   0.22490 
C          C       0.41037   0.58740   0.16933 
C          C       0.39343   0.60789   0.31261 
C          C       0.36521   0.63470   0.25675 
C          C       0.34838   0.64104   0.05718 
C          C       0.35793   0.61997   0.91548 
C          C       0.38981   0.59333   0.97062 
N          N       0.31615   0.66826   0.99833 
C          C       0.30228   0.71845   0.03019 
C          C       0.69293   0.73057   0.01143 
C          C       0.34643   0.69139   0.07745 
C          C       0.35029   0.74346   0.06962 
H          H       0.40705   0.60350   0.46693 
H          H       0.35599   0.65043   0.36945 
H          H       0.82712   0.63670   0.78941 
H          H       0.89070   0.59002   0.87077 
H          H       0.65425   0.71153   0.98144 
H          H       0.40390   0.69101   0.18293 
H          H       0.42112   0.75697   0.62540 
S          S       0.59339   0.03950   0.89038 
C          C       0.54146   0.07251   0.82236 
C          C       0.59234   0.09874   0.86864 
C          C       0.60598   0.11872   0.72013 
C          C       0.63788   0.14544   0.76796 
C          C       0.66156   0.15225   0.96384 
C          C       0.65418   0.13174   0.11036 
C          C       0.61899   0.10515   0.06361 
N          N       0.69837   0.17932   0.01309 
C          C       0.71439   0.22937   0.97130 
C          C       0.28957   0.21969   0.09161 
C          C       0.66805   0.20237   0.93290 
C          C       0.66667   0.25436   0.93063 
H          H       0.58783   0.11399   0.56810 
H          H       0.64510   0.16068   0.65151 
H          H       0.15588   0.12454   0.28933 
H          H       0.09765   0.07779   0.19324 
H          H       0.32838   0.20071   0.12197 
H          H       0.60772   0.20203   0.83498 
H          H       0.59557   0.24604   0.37640 
S          S       0.59195   0.52814   0.39553 
C          C       0.54053   0.56118   0.32609 
C          C       0.58945   0.58740   0.38168 
C          C       0.60640   0.60789   0.23840 
C          C       0.63460   0.63470   0.29428 
C          C       0.65144   0.64104   0.49385 
C          C       0.64189   0.61996   0.63554 
C          C       0.61002   0.59332   0.58039 
N          N       0.68365   0.66826   0.55271 
C          C       0.69751   0.71845   0.52087 
C          C       0.30688   0.73057   0.53964 
C          C       0.65337   0.69139   0.47360 
C          C       0.64950   0.74346   0.48143 
H          H       0.59277   0.60350   0.08409 
H          H       0.64382   0.65043   0.18158 
H          H       0.17269   0.63671   0.76167 
H          H       0.10910   0.59003   0.68032 
H          H       0.34556   0.71153   0.56963 
H          H       0.59591   0.69101   0.36812 
H          H       0.57868   0.75697   0.92568 
S          S       0.59192   0.97177   0.89560 
C          C       0.54050   0.93874   0.82616 
C          C       0.58942   0.91252   0.88173 
C          C       0.60637   0.89203   0.73845 
C          C       0.63458   0.86522   0.79432 
C          C       0.65142   0.85888   0.99389 
C          C       0.64187   0.87995   0.13558 
C          C       0.60999   0.90659   0.08044 
N          N       0.68364   0.83166   0.05273 
C          C       0.69751   0.78147   0.02088 
C          C       0.30687   0.76935   0.03964 
C          C       0.65337   0.80853   0.97362 
C          C       0.64951   0.75646   0.98144 
H          H       0.59274   0.89642   0.58413 
H          H       0.64380   0.84949   0.68161 
H          H       0.17267   0.86322   0.26165 
H          H       0.10910   0.90990   0.18029 
H          H       0.34555   0.78839   0.06962 
H          H       0.59590   0.80890   0.86813 
H          H       0.57868   0.74295   0.42567 
S          S       0.59340   0.46042   0.39033 
C          C       0.54146   0.42741   0.32232 
C          C       0.59233   0.40117   0.36861 
C          C       0.60596   0.38120   0.22011 
C          C       0.63786   0.35448   0.26795 
C          C       0.66154   0.34767   0.46383 
C          C       0.65417   0.36818   0.61034 
C          C       0.61899   0.39477   0.56358 
N          N       0.69835   0.32059   0.51308 
C          C       0.71438   0.27055   0.47130 
C          C       0.28957   0.28023   0.59162 
C          C       0.66803   0.29755   0.43290 
C          C       0.66666   0.24555   0.43063 
H          H       0.58782   0.38593   0.06808 
H          H       0.64508   0.33924   0.15151 
H          H       0.15586   0.37538   0.78937 
H          H       0.09762   0.42212   0.69330 
H          H       0.32838   0.29921   0.62198 
H          H       0.60771   0.29788   0.33498 
H          H       0.59558   0.25388   0.87640 
S          S       0.40785   0.97177   0.65553 
C          C       0.45927   0.93874   0.72497 
C          C       0.41034   0.91252   0.66938 
C          C       0.39340   0.89203   0.81266 
C          C       0.36519   0.86522   0.75678 
C          C       0.34836   0.85888   0.55721 
C          C       0.35790   0.87995   0.41553 
C          C       0.38978   0.90659   0.47067 
N          N       0.31614   0.83165   0.49835 
C          C       0.30228   0.78146   0.53020 
C          C       0.69292   0.76935   0.51142 
C          C       0.34642   0.80853   0.57746 
C          C       0.35029   0.75646   0.56963 
H          H       0.40703   0.89642   0.96698 
H          H       0.35597   0.84949   0.86948 
H          H       0.82711   0.86321   0.28940 
H          H       0.89070   0.90989   0.37074 
H          H       0.65423   0.78839   0.48144 
H          H       0.40389   0.80891   0.68295 
H          H       0.42111   0.74295   0.12539 
S          S       0.40641   0.46042   0.16068 
C          C       0.45834   0.42741   0.22870 
C          C       0.40746   0.40118   0.18243 
C          C       0.39382   0.38120   0.33094 
C          C       0.36192   0.35448   0.28310 
C          C       0.33823   0.34767   0.08723 
C          C       0.34561   0.36818   0.94070 
C          C       0.38080   0.39477   0.98746 
N          N       0.30142   0.32060   0.03798 
C          C       0.28541   0.27055   0.07976 
C          C       0.71022   0.28023   0.95945 
C          C       0.33175   0.29755   0.11816 
C          C       0.33313   0.24556   0.12043 
H          H       0.41196   0.38593   0.48296 
H          H       0.35469   0.33924   0.39955 
H          H       0.84391   0.37538   0.76173 
H          H       0.90214   0.42213   0.85782 
H          H       0.67142   0.29920   0.92909 
H          H       0.39207   0.29789   0.21609 
H          H       0.40422   0.25388   0.67467 
C          C       0.49989   0.01976   0.77556 
C          C       0.49991   0.50840   0.27550 
C          C       0.49989   0.99152   0.77557 
C          C       0.49991   0.48016   0.27550 
