data_crystal
 
_cell_length_a    25.32000
_cell_length_b    42.62300
_cell_length_c    9.06000
_cell_angle_alpha 90.00000
_cell_angle_beta  94.95000
_cell_angle_gamma 90.00000
 
_space_group_name_Hall 'P 1'
_space_group_name_H-M_alt  'P 1'
 
loop_
_symmetry_equiv_pos_as_xyz
 'x,y,z' 
 
loop_
_atom_site_label
_atom_site_type_symbol
_atom_site_fract_x
_atom_site_fract_y
_atom_site_fract_z
S          S       0.44005   0.03791   0.20977 
S          S       0.55995   0.03791   0.29023 
S          S       0.94005   0.53791   0.20977 
S          S       0.05995   0.53791   0.29023 
S          S       0.55995   0.96209   0.29023 
S          S       0.44005   0.96209   0.20977 
S          S       0.05995   0.46209   0.29023 
S          S       0.94005   0.46209   0.20977 
C          C       0.47346   0.07542   0.23183 
C          C       0.52654   0.07542   0.26816 
C          C       0.97346   0.57542   0.23183 
C          C       0.02654   0.57542   0.26816 
C          C       0.52654   0.92458   0.26816 
C          C       0.47346   0.92458   0.23183 
C          C       0.02654   0.42458   0.26816 
C          C       0.97346   0.42458   0.23183 
C          C       0.43922   0.10380   0.20945 
C          C       0.56078   0.10380   0.29055 
C          C       0.93922   0.60380   0.20945 
C          C       0.06078   0.60380   0.29055 
C          C       0.56078   0.89620   0.29055 
C          C       0.43922   0.89620   0.20945 
C          C       0.06078   0.39620   0.29055 
C          C       0.93922   0.39620   0.20945 
C          C       0.44545   0.13015   0.30233 
C          C       0.55455   0.13015   0.19766 
C          C       0.94545   0.63015   0.30233 
C          C       0.05455   0.63015   0.19766 
C          C       0.55455   0.86985   0.19766 
C          C       0.44545   0.86985   0.30233 
C          C       0.05455   0.36985   0.19766 
C          C       0.94545   0.36985   0.30233 
C          C       0.41349   0.15663   0.27648 
C          C       0.58651   0.15663   0.22351 
C          C       0.91349   0.65663   0.27648 
C          C       0.08651   0.65663   0.22351 
C          C       0.58651   0.84337   0.22351 
C          C       0.41349   0.84337   0.27648 
C          C       0.08651   0.34337   0.22351 
C          C       0.91349   0.34337   0.27648 
C          C       0.37314   0.15700   0.16098 
C          C       0.62686   0.15700   0.33902 
C          C       0.87314   0.65700   0.16098 
C          C       0.12686   0.65700   0.33902 
C          C       0.62686   0.84300   0.33902 
C          C       0.37314   0.84300   0.16098 
C          C       0.12686   0.34300   0.33902 
C          C       0.87314   0.34300   0.16098 
C          C       0.36442   0.12994   0.07318 
C          C       0.63558   0.12994   0.42681 
C          C       0.86442   0.62994   0.07318 
C          C       0.13558   0.62994   0.42681 
C          C       0.63558   0.87006   0.42681 
C          C       0.36442   0.87006   0.07318 
C          C       0.13558   0.37006   0.42681 
C          C       0.86442   0.37006   0.07318 
C          C       0.39746   0.10384   0.09657 
C          C       0.60254   0.10384   0.40343 
C          C       0.89746   0.60384   0.09657 
C          C       0.10254   0.60384   0.40343 
C          C       0.60254   0.89616   0.40343 
C          C       0.39746   0.89616   0.09657 
C          C       0.10254   0.39616   0.40343 
C          C       0.89746   0.39616   0.09657 
N          N       0.34255   0.18526   0.13750 
N          N       0.65745   0.18526   0.36250 
N          N       0.84255   0.68526   0.13750 
N          N       0.15745   0.68526   0.36250 
N          N       0.65745   0.81474   0.36250 
N          N       0.34255   0.81474   0.13750 
N          N       0.15745   0.31474   0.36250 
N          N       0.84255   0.31474   0.13750 
C          C       0.27884   0.22169   0.01706 
C          C       0.72116   0.22169   0.48294 
C          C       0.77884   0.72169   0.01706 
C          C       0.22116   0.72169   0.48294 
C          C       0.72116   0.77831   0.48294 
C          C       0.27884   0.77831   0.01706 
C          C       0.22116   0.27831   0.48294 
C          C       0.77884   0.27831   0.01706 
C          C       0.23461   0.22404   0.41320 
C          C       0.76539   0.22404   0.08679 
C          C       0.73461   0.72404   0.41320 
C          C       0.26539   0.72404   0.08679 
C          C       0.76539   0.77596   0.08679 
C          C       0.23461   0.77596   0.41320 
C          C       0.26539   0.27596   0.08679 
C          C       0.73461   0.27596   0.41320 
C          C       0.36199   0.27276   0.27785 
C          C       0.63801   0.27276   0.22215 
C          C       0.86199   0.77276   0.27785 
C          C       0.13801   0.77276   0.22215 
C          C       0.63801   0.72724   0.22215 
C          C       0.36199   0.72724   0.27785 
C          C       0.13801   0.22724   0.22215 
C          C       0.86199   0.22724   0.27785 
C          C       0.30747   0.19130   0.02792 
C          C       0.69253   0.19130   0.47208 
C          C       0.80747   0.69130   0.02792 
C          C       0.19253   0.69130   0.47208 
C          C       0.69253   0.80870   0.47208 
C          C       0.30747   0.80870   0.02792 
C          C       0.19253   0.30870   0.47208 
C          C       0.80747   0.30870   0.02792 
C          C       0.29504   0.24797   0.10463 
C          C       0.70496   0.24797   0.39537 
C          C       0.79504   0.74797   0.10463 
C          C       0.20496   0.74797   0.39537 
C          C       0.70496   0.75203   0.39537 
C          C       0.29504   0.75203   0.10463 
C          C       0.20496   0.25203   0.39537 
C          C       0.79504   0.25203   0.10463 
O          O       0.34058   0.24524   0.20561 
O          O       0.65942   0.24524   0.29439 
O          O       0.84058   0.74524   0.20561 
O          O       0.15942   0.74524   0.29439 
O          O       0.65942   0.75476   0.29439 
O          O       0.34058   0.75476   0.20561 
O          O       0.15942   0.25476   0.29439 
O          O       0.84058   0.25476   0.20561 
H          H       0.47513   0.13039   0.39465 
H          H       0.52487   0.13039   0.10535 
H          H       0.97513   0.63039   0.39465 
H          H       0.02487   0.63039   0.10535 
H          H       0.52487   0.86961   0.10535 
H          H       0.47513   0.86961   0.39465 
H          H       0.02487   0.36961   0.10535 
H          H       0.97513   0.36961   0.39465 
H          H       0.42000   0.17694   0.34755 
H          H       0.58000   0.17694   0.15245 
H          H       0.92000   0.67694   0.34755 
H          H       0.08000   0.67694   0.15245 
H          H       0.58000   0.82306   0.15245 
H          H       0.42000   0.82306   0.34755 
H          H       0.08000   0.32306   0.15245 
H          H       0.92000   0.32306   0.34755 
H          H       0.33304   0.12869   0.48483 
H          H       0.66696   0.12869   0.01516 
H          H       0.83304   0.62869   0.48483 
H          H       0.16696   0.62869   0.01516 
H          H       0.66696   0.87131   0.01516 
H          H       0.33304   0.87131   0.48483 
H          H       0.16696   0.37131   0.01516 
H          H       0.83304   0.37131   0.48483 
H          H       0.39084   0.08384   0.02363 
H          H       0.60916   0.08384   0.47637 
H          H       0.89084   0.58384   0.02363 
H          H       0.10916   0.58384   0.47637 
H          H       0.60916   0.91616   0.47637 
H          H       0.39084   0.91616   0.02363 
H          H       0.10916   0.41616   0.47637 
H          H       0.89084   0.41616   0.02363 
H          H       0.22347   0.20361   0.34703 
H          H       0.77653   0.20361   0.15297 
H          H       0.72347   0.70361   0.34703 
H          H       0.27653   0.70361   0.15297 
H          H       0.77653   0.79639   0.15297 
H          H       0.22347   0.79639   0.34703 
H          H       0.27653   0.29639   0.15297 
H          H       0.72347   0.29639   0.34703 
H          H       0.33356   0.28288   0.35140 
H          H       0.66644   0.28288   0.14860 
H          H       0.83356   0.78288   0.35140 
H          H       0.16644   0.78288   0.14860 
H          H       0.66644   0.71712   0.14860 
H          H       0.33356   0.71712   0.35140 
H          H       0.16644   0.21712   0.14860 
H          H       0.83356   0.21712   0.35140 
H          H       0.39844   0.26625   0.34790 
H          H       0.60156   0.26625   0.15210 
H          H       0.89844   0.76625   0.34790 
H          H       0.10156   0.76625   0.15210 
H          H       0.60156   0.73375   0.15210 
H          H       0.39844   0.73375   0.34790 
H          H       0.10156   0.23375   0.15210 
H          H       0.89844   0.23375   0.34790 
H          H       0.37281   0.29032   0.19493 
H          H       0.62719   0.29032   0.30507 
H          H       0.87281   0.79032   0.19493 
H          H       0.12719   0.79032   0.30507 
H          H       0.62719   0.70968   0.30507 
H          H       0.37281   0.70968   0.19493 
H          H       0.12719   0.20968   0.30507 
H          H       0.87281   0.20968   0.19493 
H          H       0.29814   0.17420   0.44161 
H          H       0.70186   0.17420   0.05839 
H          H       0.79814   0.67420   0.44161 
H          H       0.20186   0.67420   0.05839 
H          H       0.70186   0.82580   0.05839 
H          H       0.29814   0.82580   0.44161 
H          H       0.20186   0.32580   0.05839 
H          H       0.79814   0.32580   0.44161 
C          C       0.50000   0.01580   0.25000 
C          C       0.00000   0.51580   0.25000 
C          C       0.50000   0.98420   0.25000 
C          C       0.00000   0.48420   0.25000 
S          S       0.44005   0.03791   0.70977 
S          S       0.55995   0.03791   0.79022 
S          S       0.94005   0.53791   0.70977 
S          S       0.05995   0.53791   0.79022 
S          S       0.55995   0.96209   0.79022 
S          S       0.44005   0.96209   0.70977 
S          S       0.05995   0.46209   0.79022 
S          S       0.94005   0.46209   0.70977 
C          C       0.47346   0.07542   0.73184 
C          C       0.52654   0.07542   0.76816 
C          C       0.97346   0.57542   0.73184 
C          C       0.02654   0.57542   0.76816 
C          C       0.52654   0.92458   0.76816 
C          C       0.47346   0.92458   0.73184 
C          C       0.02654   0.42458   0.76816 
C          C       0.97346   0.42458   0.73184 
C          C       0.43922   0.10380   0.70945 
C          C       0.56078   0.10380   0.79055 
C          C       0.93922   0.60380   0.70945 
C          C       0.06078   0.60380   0.79055 
C          C       0.56078   0.89620   0.79055 
C          C       0.43922   0.89620   0.70945 
C          C       0.06078   0.39620   0.79055 
C          C       0.93922   0.39620   0.70945 
C          C       0.44545   0.13015   0.80234 
C          C       0.55455   0.13015   0.69766 
C          C       0.94545   0.63015   0.80234 
C          C       0.05455   0.63015   0.69766 
C          C       0.55455   0.86985   0.69766 
C          C       0.44545   0.86985   0.80234 
C          C       0.05455   0.36985   0.69766 
C          C       0.94545   0.36985   0.80234 
C          C       0.41349   0.15663   0.77648 
C          C       0.58651   0.15663   0.72351 
C          C       0.91349   0.65663   0.77648 
C          C       0.08651   0.65663   0.72351 
C          C       0.58651   0.84337   0.72351 
C          C       0.41349   0.84337   0.77648 
C          C       0.08651   0.34337   0.72351 
C          C       0.91349   0.34337   0.77648 
C          C       0.37314   0.15700   0.66097 
C          C       0.62686   0.15700   0.83902 
C          C       0.87314   0.65700   0.66097 
C          C       0.12686   0.65700   0.83902 
C          C       0.62686   0.84300   0.83902 
C          C       0.37314   0.84300   0.66097 
C          C       0.12686   0.34300   0.83902 
C          C       0.87314   0.34300   0.66097 
C          C       0.36442   0.12994   0.57318 
C          C       0.63558   0.12994   0.92681 
C          C       0.86442   0.62994   0.57318 
C          C       0.13558   0.62994   0.92681 
C          C       0.63558   0.87006   0.92681 
C          C       0.36442   0.87006   0.57318 
C          C       0.13558   0.37006   0.92681 
C          C       0.86442   0.37006   0.57318 
C          C       0.39746   0.10384   0.59658 
C          C       0.60254   0.10384   0.90343 
C          C       0.89746   0.60384   0.59658 
C          C       0.10254   0.60384   0.90343 
C          C       0.60254   0.89616   0.90343 
C          C       0.39746   0.89616   0.59658 
C          C       0.10254   0.39616   0.90343 
C          C       0.89746   0.39616   0.59658 
N          N       0.34255   0.18526   0.63750 
N          N       0.65745   0.18526   0.86250 
N          N       0.84255   0.68526   0.63750 
N          N       0.15745   0.68526   0.86250 
N          N       0.65745   0.81474   0.86250 
N          N       0.34255   0.81474   0.63750 
N          N       0.15745   0.31474   0.86250 
N          N       0.84255   0.31474   0.63750 
C          C       0.27884   0.22169   0.51706 
C          C       0.72116   0.22169   0.98294 
C          C       0.77884   0.72169   0.51706 
C          C       0.22116   0.72169   0.98294 
C          C       0.72116   0.77831   0.98294 
C          C       0.27884   0.77831   0.51706 
C          C       0.22116   0.27831   0.98294 
C          C       0.77884   0.27831   0.51706 
C          C       0.23461   0.22404   0.91320 
C          C       0.76539   0.22404   0.58679 
C          C       0.73461   0.72404   0.91320 
C          C       0.26539   0.72404   0.58679 
C          C       0.76539   0.77596   0.58679 
C          C       0.23461   0.77596   0.91320 
C          C       0.26539   0.27596   0.58679 
C          C       0.73461   0.27596   0.91320 
C          C       0.36199   0.27276   0.77785 
C          C       0.63801   0.27276   0.72215 
C          C       0.86199   0.77276   0.77785 
C          C       0.13801   0.77276   0.72215 
C          C       0.63801   0.72724   0.72215 
C          C       0.36199   0.72724   0.77785 
C          C       0.13801   0.22724   0.72215 
C          C       0.86199   0.22724   0.77785 
C          C       0.30747   0.19130   0.52792 
C          C       0.69253   0.19130   0.97208 
C          C       0.80747   0.69130   0.52792 
C          C       0.19253   0.69130   0.97208 
C          C       0.69253   0.80870   0.97208 
C          C       0.30747   0.80870   0.52792 
C          C       0.19253   0.30870   0.97208 
C          C       0.80747   0.30870   0.52792 
C          C       0.29504   0.24797   0.60463 
C          C       0.70496   0.24797   0.89537 
C          C       0.79504   0.74797   0.60463 
C          C       0.20496   0.74797   0.89537 
C          C       0.70496   0.75203   0.89537 
C          C       0.29504   0.75203   0.60463 
C          C       0.20496   0.25203   0.89537 
C          C       0.79504   0.25203   0.60463 
O          O       0.34058   0.24524   0.70561 
O          O       0.65942   0.24524   0.79439 
O          O       0.84058   0.74524   0.70561 
O          O       0.15942   0.74524   0.79439 
O          O       0.65942   0.75476   0.79439 
O          O       0.34058   0.75476   0.70561 
O          O       0.15942   0.25476   0.79439 
O          O       0.84058   0.25476   0.70561 
H          H       0.47513   0.13039   0.89465 
H          H       0.52487   0.13039   0.60535 
H          H       0.97513   0.63039   0.89465 
H          H       0.02487   0.63039   0.60535 
H          H       0.52487   0.86961   0.60535 
H          H       0.47513   0.86961   0.89465 
H          H       0.02487   0.36961   0.60535 
H          H       0.97513   0.36961   0.89465 
H          H       0.42000   0.17694   0.84755 
H          H       0.58000   0.17694   0.65245 
H          H       0.92000   0.67694   0.84755 
H          H       0.08000   0.67694   0.65245 
H          H       0.58000   0.82306   0.65245 
H          H       0.42000   0.82306   0.84755 
H          H       0.08000   0.32306   0.65245 
H          H       0.92000   0.32306   0.84755 
H          H       0.33304   0.12869   0.98483 
H          H       0.66696   0.12869   0.51516 
H          H       0.83304   0.62869   0.98483 
H          H       0.16696   0.62869   0.51516 
H          H       0.66696   0.87131   0.51516 
H          H       0.33304   0.87131   0.98483 
H          H       0.16696   0.37131   0.51516 
H          H       0.83304   0.37131   0.98483 
H          H       0.39084   0.08384   0.52363 
H          H       0.60916   0.08384   0.97637 
H          H       0.89084   0.58384   0.52363 
H          H       0.10916   0.58384   0.97637 
H          H       0.60916   0.91616   0.97637 
H          H       0.39084   0.91616   0.52363 
H          H       0.10916   0.41616   0.97637 
H          H       0.89084   0.41616   0.52363 
H          H       0.22347   0.20361   0.84702 
H          H       0.77653   0.20361   0.65297 
H          H       0.72347   0.70361   0.84702 
H          H       0.27653   0.70361   0.65297 
H          H       0.77653   0.79639   0.65297 
H          H       0.22347   0.79639   0.84702 
H          H       0.27653   0.29639   0.65297 
H          H       0.72347   0.29639   0.84702 
H          H       0.33356   0.28288   0.85140 
H          H       0.66644   0.28288   0.64860 
H          H       0.83356   0.78288   0.85140 
H          H       0.16644   0.78288   0.64860 
H          H       0.66644   0.71712   0.64860 
H          H       0.33356   0.71712   0.85140 
H          H       0.16644   0.21712   0.64860 
H          H       0.83356   0.21712   0.85140 
H          H       0.39844   0.26625   0.84790 
H          H       0.60156   0.26625   0.65210 
H          H       0.89844   0.76625   0.84790 
H          H       0.10156   0.76625   0.65210 
H          H       0.60156   0.73375   0.65210 
H          H       0.39844   0.73375   0.84790 
H          H       0.10156   0.23375   0.65210 
H          H       0.89844   0.23375   0.84790 
H          H       0.37281   0.29032   0.69493 
H          H       0.62719   0.29032   0.80507 
H          H       0.87281   0.79032   0.69493 
H          H       0.12719   0.79032   0.80507 
H          H       0.62719   0.70968   0.80507 
H          H       0.37281   0.70968   0.69493 
H          H       0.12719   0.20968   0.80507 
H          H       0.87281   0.20968   0.69493 
H          H       0.29814   0.17420   0.94161 
H          H       0.70186   0.17420   0.55839 
H          H       0.79814   0.67420   0.94161 
H          H       0.20186   0.67420   0.55839 
H          H       0.70186   0.82580   0.55839 
H          H       0.29814   0.82580   0.94161 
H          H       0.20186   0.32580   0.55839 
H          H       0.79814   0.32580   0.94161 
C          C       0.50000   0.01580   0.75000 
C          C       0.00000   0.51580   0.75000 
C          C       0.50000   0.98420   0.75000 
C          C       0.00000   0.48420   0.75000 
