data_crystal

_cell_length_a    24.80000
_cell_length_b    44.06000
_cell_length_c    9.04000
_cell_angle_alpha 90.00000
_cell_angle_beta  104.86000
_cell_angle_gamma 90.00000

_space_group_name_Hall 'P 1'
_space_group_name_H-M_alt  'P 1'

loop_
_symmetry_equiv_pos_as_xyz
'x,y,z' 

loop_
_atom_site_label
_atom_site_type_symbol
_atom_site_fract_x
_atom_site_fract_y
_atom_site_fract_z
S          S       0.43702   0.03668   0.17835 
S          S       0.56298   0.03668   0.32165 
S          S       0.93702   0.53668   0.17835 
S          S       0.06298   0.53668   0.32165 
S          S       0.56298   0.96332   0.32165 
S          S       0.43702   0.96332   0.17835 
S          S       0.06298   0.46332   0.32165 
S          S       0.93702   0.46332   0.17835 
C          C       0.47210   0.07299   0.21799 
C          C       0.52790   0.07299   0.28201 
C          C       0.97210   0.57299   0.21799 
C          C       0.02790   0.57299   0.28201 
C          C       0.52790   0.92701   0.28201 
C          C       0.47210   0.92701   0.21799 
C          C       0.02790   0.42701   0.28201 
C          C       0.97210   0.42701   0.21799 
C          C       0.43594   0.10043   0.17929 
C          C       0.56406   0.10043   0.32071 
C          C       0.93594   0.60043   0.17929 
C          C       0.06406   0.60043   0.32071 
C          C       0.56406   0.89957   0.32071 
C          C       0.43594   0.89957   0.17929 
C          C       0.06406   0.39957   0.32071 
C          C       0.93594   0.39957   0.17929 
C          C       0.44250   0.12578   0.27642 
C          C       0.55750   0.12578   0.22358 
C          C       0.94250   0.62578   0.27642 
C          C       0.05750   0.62578   0.22358 
C          C       0.55750   0.87422   0.22358 
C          C       0.44250   0.87422   0.27642 
C          C       0.05750   0.37422   0.22358 
C          C       0.94250   0.37422   0.27642 
C          C       0.40791   0.15115   0.23802 
C          C       0.59209   0.15115   0.26199 
C          C       0.90791   0.65115   0.23802 
C          C       0.09209   0.65115   0.26199 
C          C       0.59209   0.84885   0.26199 
C          C       0.40791   0.84885   0.23802 
C          C       0.09209   0.34885   0.26199 
C          C       0.90791   0.34885   0.23802 
C          C       0.36421   0.15122   0.10314 
C          C       0.63579   0.15122   0.39687 
C          C       0.86421   0.65122   0.10314 
C          C       0.13579   0.65122   0.39687 
C          C       0.63579   0.84878   0.39687 
C          C       0.36421   0.84878   0.10314 
C          C       0.13579   0.34878   0.39687 
C          C       0.86421   0.34878   0.10314 
C          C       0.35595   0.12545   0.00966 
C          C       0.64405   0.12545   0.49034 
C          C       0.85595   0.62545   0.00966 
C          C       0.14405   0.62545   0.49034 
C          C       0.64405   0.87455   0.49034 
C          C       0.35595   0.87455   0.00966 
C          C       0.14405   0.37455   0.49034 
C          C       0.85595   0.37455   0.00966 
C          C       0.39153   0.10045   0.04632 
C          C       0.60847   0.10045   0.45368 
C          C       0.89153   0.60045   0.04632 
C          C       0.10847   0.60045   0.45368 
C          C       0.60847   0.89955   0.45368 
C          C       0.39153   0.89955   0.04632 
C          C       0.10847   0.39955   0.45368 
C          C       0.89153   0.39955   0.04632 
N          N       0.32717   0.17654   0.05636 
N          N       0.67283   0.17654   0.44364 
N          N       0.82717   0.67654   0.05636 
N          N       0.17283   0.67654   0.44364 
N          N       0.67283   0.82346   0.44364 
N          N       0.32717   0.82346   0.05636 
N          N       0.17283   0.32346   0.44364 
N          N       0.82717   0.32346   0.05636 
C          C       0.28883   0.22683   0.05876 
C          C       0.71117   0.22683   0.44124 
C          C       0.78883   0.72683   0.05876 
C          C       0.21117   0.72683   0.44124 
C          C       0.71117   0.77317   0.44124 
C          C       0.28883   0.77317   0.05876 
C          C       0.21117   0.27317   0.44124 
C          C       0.78883   0.27317   0.05876 
C          C       0.24516   0.22177   0.42705 
C          C       0.75484   0.22177   0.07295 
C          C       0.74516   0.72177   0.42705 
C          C       0.25484   0.72177   0.07295 
C          C       0.75484   0.77823   0.07295 
C          C       0.24516   0.77823   0.42705 
C          C       0.25484   0.27823   0.07295 
C          C       0.74516   0.27823   0.42705 
C          C       0.33002   0.20294   0.12221 
C          C       0.66998   0.20294   0.37779 
C          C       0.83002   0.70294   0.12221 
C          C       0.16998   0.70294   0.37779 
C          C       0.66998   0.79706   0.37779 
C          C       0.33002   0.79706   0.12221 
C          C       0.16998   0.29706   0.37779 
C          C       0.83002   0.29706   0.12221 
C          C       0.29332   0.25525   0.13093 
C          C       0.70668   0.25525   0.36907 
C          C       0.79332   0.75525   0.13093 
C          C       0.20668   0.75525   0.36907 
C          C       0.70668   0.74475   0.36907 
C          C       0.29332   0.74475   0.13093 
C          C       0.20668   0.24475   0.36907 
C          C       0.79332   0.24475   0.13093 
C          C       0.50000   0.01528   0.25000 
C          C       0.00000   0.51528   0.25000 
C          C       0.50000   0.98472   0.25000 
C          C       0.00000   0.48472   0.25000 
H          H       0.47420   0.12599   0.38277 
H          H       0.52580   0.12599   0.11723 
H          H       0.97420   0.62599   0.38277 
H          H       0.02580   0.62599   0.11723 
H          H       0.52580   0.87401   0.11723 
H          H       0.47420   0.87401   0.38277 
H          H       0.02580   0.37401   0.11723 
H          H       0.97420   0.37401   0.38277 
H          H       0.41520   0.17008   0.31650 
H          H       0.58480   0.17008   0.18350 
H          H       0.91520   0.67008   0.31650 
H          H       0.08480   0.67008   0.18350 
H          H       0.58480   0.82992   0.18350 
H          H       0.41520   0.82992   0.31650 
H          H       0.08480   0.32992   0.18350 
H          H       0.91520   0.32992   0.31650 
H          H       0.32238   0.12500   0.40578 
H          H       0.67762   0.12500   0.09422 
H          H       0.82238   0.62500   0.40578 
H          H       0.17762   0.62500   0.09422 
H          H       0.67762   0.87500   0.09422 
H          H       0.32238   0.87500   0.40578 
H          H       0.17762   0.37500   0.09422 
H          H       0.82238   0.37500   0.40578 
H          H       0.38470   0.08131   0.46858 
H          H       0.61530   0.08131   0.03141 
H          H       0.88470   0.58131   0.46858 
H          H       0.11530   0.58131   0.03141 
H          H       0.61530   0.91869   0.03141 
H          H       0.38470   0.91869   0.46858 
H          H       0.11530   0.41869   0.03141 
H          H       0.88470   0.41869   0.46858 
H          H       0.24076   0.20012   0.36836 
H          H       0.75924   0.20012   0.13164 
H          H       0.74076   0.70012   0.36836 
H          H       0.25924   0.70012   0.13164 
H          H       0.75924   0.79988   0.13164 
H          H       0.24076   0.79988   0.36836 
H          H       0.25924   0.29988   0.13164 
H          H       0.74076   0.29988   0.36836 
H          H       0.36280   0.20817   0.22331 
H          H       0.63720   0.20817   0.27670 
H          H       0.86280   0.70817   0.22331 
H          H       0.13720   0.70817   0.27670 
H          H       0.63720   0.79183   0.27670 
H          H       0.36280   0.79183   0.22331 
H          H       0.13720   0.29183   0.27670 
H          H       0.86280   0.29183   0.22331 
H          H       0.32648   0.25964   0.23291 
H          H       0.67352   0.25964   0.26709 
H          H       0.82648   0.75964   0.23291 
H          H       0.17352   0.75964   0.26709 
H          H       0.67352   0.74036   0.26709 
H          H       0.32648   0.74036   0.23291 
H          H       0.17352   0.24036   0.26709 
H          H       0.82648   0.24036   0.23291 
S          S       0.43702   0.03668   0.67835 
S          S       0.56298   0.03668   0.82165 
S          S       0.93702   0.53668   0.67835 
S          S       0.06298   0.53668   0.82165 
S          S       0.56298   0.96332   0.82165 
S          S       0.43702   0.96332   0.67835 
S          S       0.06298   0.46332   0.82165 
S          S       0.93702   0.46332   0.67835 
C          C       0.47210   0.07299   0.71799 
C          C       0.52790   0.07299   0.78201 
C          C       0.97210   0.57299   0.71799 
C          C       0.02790   0.57299   0.78201 
C          C       0.52790   0.92701   0.78201 
C          C       0.47210   0.92701   0.71799 
C          C       0.02790   0.42701   0.78201 
C          C       0.97210   0.42701   0.71799 
C          C       0.43594   0.10043   0.67929 
C          C       0.56406   0.10043   0.82071 
C          C       0.93594   0.60043   0.67929 
C          C       0.06406   0.60043   0.82071 
C          C       0.56406   0.89957   0.82071 
C          C       0.43594   0.89957   0.67929 
C          C       0.06406   0.39957   0.82071 
C          C       0.93594   0.39957   0.67929 
C          C       0.44250   0.12578   0.77642 
C          C       0.55750   0.12578   0.72358 
C          C       0.94250   0.62578   0.77642 
C          C       0.05750   0.62578   0.72358 
C          C       0.55750   0.87422   0.72358 
C          C       0.44250   0.87422   0.77642 
C          C       0.05750   0.37422   0.72358 
C          C       0.94250   0.37422   0.77642 
C          C       0.40791   0.15115   0.73802 
C          C       0.59209   0.15115   0.76198 
C          C       0.90791   0.65115   0.73802 
C          C       0.09209   0.65115   0.76198 
C          C       0.59209   0.84885   0.76198 
C          C       0.40791   0.84885   0.73802 
C          C       0.09209   0.34885   0.76198 
C          C       0.90791   0.34885   0.73802 
C          C       0.36421   0.15122   0.60313 
C          C       0.63579   0.15122   0.89687 
C          C       0.86421   0.65122   0.60313 
C          C       0.13579   0.65122   0.89687 
C          C       0.63579   0.84878   0.89687 
C          C       0.36421   0.84878   0.60313 
C          C       0.13579   0.34878   0.89687 
C          C       0.86421   0.34878   0.60313 
C          C       0.35595   0.12545   0.50966 
C          C       0.64405   0.12545   0.99034 
C          C       0.85595   0.62545   0.50966 
C          C       0.14405   0.62545   0.99034 
C          C       0.64405   0.87455   0.99034 
C          C       0.35595   0.87455   0.50966 
C          C       0.14405   0.37455   0.99034 
C          C       0.85595   0.37455   0.50966 
C          C       0.39153   0.10045   0.54632 
C          C       0.60847   0.10045   0.95368 
C          C       0.89153   0.60045   0.54632 
C          C       0.10847   0.60045   0.95368 
C          C       0.60847   0.89955   0.95368 
C          C       0.39153   0.89955   0.54632 
C          C       0.10847   0.39955   0.95368 
C          C       0.89153   0.39955   0.54632 
N          N       0.32717   0.17654   0.55636 
N          N       0.67283   0.17654   0.94364 
N          N       0.82717   0.67654   0.55636 
N          N       0.17283   0.67654   0.94364 
N          N       0.67283   0.82346   0.94364 
N          N       0.32717   0.82346   0.55636 
N          N       0.17283   0.32346   0.94364 
N          N       0.82717   0.32346   0.55636 
C          C       0.28883   0.22683   0.55876 
C          C       0.71117   0.22683   0.94124 
C          C       0.78883   0.72683   0.55876 
C          C       0.21117   0.72683   0.94124 
C          C       0.71117   0.77317   0.94124 
C          C       0.28883   0.77317   0.55876 
C          C       0.21117   0.27317   0.94124 
C          C       0.78883   0.27317   0.55876 
C          C       0.24516   0.22177   0.92705 
C          C       0.75484   0.22177   0.57295 
C          C       0.74516   0.72177   0.92705 
C          C       0.25484   0.72177   0.57295 
C          C       0.75484   0.77823   0.57295 
C          C       0.24516   0.77823   0.92705 
C          C       0.25484   0.27823   0.57295 
C          C       0.74516   0.27823   0.92705 
C          C       0.33002   0.20294   0.62221 
C          C       0.66998   0.20294   0.87779 
C          C       0.83002   0.70294   0.62221 
C          C       0.16998   0.70294   0.87779 
C          C       0.66998   0.79706   0.87779 
C          C       0.33002   0.79706   0.62221 
C          C       0.16998   0.29706   0.87779 
C          C       0.83002   0.29706   0.62221 
C          C       0.29332   0.25525   0.63092 
C          C       0.70668   0.25525   0.86908 
C          C       0.79332   0.75525   0.63092 
C          C       0.20668   0.75525   0.86908 
C          C       0.70668   0.74475   0.86908 
C          C       0.29332   0.74475   0.63092 
C          C       0.20668   0.24475   0.86908 
C          C       0.79332   0.24475   0.63092 
C          C       0.50000   0.01528   0.75000 
C          C       0.00000   0.51528   0.75000 
C          C       0.50000   0.98472   0.75000 
C          C       0.00000   0.48472   0.75000 
H          H       0.47420   0.12599   0.88277 
H          H       0.52580   0.12599   0.61723 
H          H       0.97420   0.62599   0.88277 
H          H       0.02580   0.62599   0.61723 
H          H       0.52580   0.87401   0.61723 
H          H       0.47420   0.87401   0.88277 
H          H       0.02580   0.37401   0.61723 
H          H       0.97420   0.37401   0.88277 
H          H       0.41520   0.17008   0.81650 
H          H       0.58480   0.17008   0.68350 
H          H       0.91520   0.67008   0.81650 
H          H       0.08480   0.67008   0.68350 
H          H       0.58480   0.82992   0.68350 
H          H       0.41520   0.82992   0.81650 
H          H       0.08480   0.32992   0.68350 
H          H       0.91520   0.32992   0.81650 
H          H       0.32238   0.12500   0.90578 
H          H       0.67762   0.12500   0.59422 
H          H       0.82238   0.62500   0.90578 
H          H       0.17762   0.62500   0.59422 
H          H       0.67762   0.87500   0.59422 
H          H       0.32238   0.87500   0.90578 
H          H       0.17762   0.37500   0.59422 
H          H       0.82238   0.37500   0.90578 
H          H       0.38470   0.08131   0.96859 
H          H       0.61530   0.08131   0.53141 
H          H       0.88470   0.58131   0.96859 
H          H       0.11530   0.58131   0.53141 
H          H       0.61530   0.91869   0.53141 
H          H       0.38470   0.91869   0.96859 
H          H       0.11530   0.41869   0.53141 
H          H       0.88470   0.41869   0.96859 
H          H       0.24076   0.20012   0.86836 
H          H       0.75924   0.20012   0.63163 
H          H       0.74076   0.70012   0.86836 
H          H       0.25924   0.70012   0.63163 
H          H       0.75924   0.79988   0.63163 
H          H       0.24076   0.79988   0.86836 
H          H       0.25924   0.29988   0.63163 
H          H       0.74076   0.29988   0.86836 
H          H       0.36280   0.20817   0.72330 
H          H       0.63720   0.20817   0.77670 
H          H       0.86280   0.70817   0.72330 
H          H       0.13720   0.70817   0.77670 
H          H       0.63720   0.79183   0.77670 
H          H       0.36280   0.79183   0.72330 
H          H       0.13720   0.29183   0.77670 
H          H       0.86280   0.29183   0.72330 
H          H       0.32648   0.25964   0.73291 
H          H       0.67352   0.25964   0.76709 
H          H       0.82648   0.75964   0.73291 
H          H       0.17352   0.75964   0.76709 
H          H       0.67352   0.74036   0.76709 
H          H       0.32648   0.74036   0.73291 
H          H       0.17352   0.24036   0.76709 
H          H       0.82648   0.24036   0.73291 
