data_crystal
 
_cell_length_a    24.30000
_cell_length_b    44.78000
_cell_length_c    10.72000
_cell_angle_alpha 134.44000
_cell_angle_beta  111.47000
_cell_angle_gamma 72.15000
 
_symmetry_space_group_name_Hall 'P 1'
_symmetry_space_group_name_H-M  'P 1'
 
loop_
_symmetry_equiv_pos_as_xyz
 'x,y,z' 
 
loop_
_atom_site_label
_atom_site_type_symbol
_atom_site_fract_x
_atom_site_fract_y
_atom_site_fract_z
S          S       0.42775   0.03843   0.20507 
C          C       0.46193   0.07477   0.23867 
C          C       0.42169   0.10655   0.23399 
C          C       0.43052   0.14950   0.37321 
C          C       0.39866   0.17793   0.35144 
C          C       0.35658   0.16418   0.19281 
C          C       0.34375   0.12174   0.06063 
C          C       0.37599   0.09331   0.08198 
N          N       0.32962   0.19408   0.17075 
C          C       0.27245   0.21996   0.01882 
C          C       0.23010   0.20982   0.36548 
C          C       0.14432   0.18871   0.04960 
C          C       0.29546   0.18634   0.02628 
C          C       0.29287   0.26064   0.15601 
O          O       0.33575   0.27002   0.30877 
H          H       0.46409   0.16072   0.49436 
H          H       0.40805   0.21064   0.45644 
H          H       0.31018   0.10985   0.43893 
H          H       0.36731   0.06048   0.47511 
H          H       0.21546   0.17841   0.26267 
H          H       0.18192   0.16523   0.49247 
H          H       0.11171   0.18725   0.44136 
H          H       0.12185   0.18133   0.09800 
H          H       0.28404   0.15476   0.40548 
S          S       0.92775   0.53843   0.20504 
C          C       0.96193   0.57476   0.23864 
C          C       0.92169   0.60654   0.23397 
C          C       0.93052   0.64950   0.37318 
C          C       0.89867   0.67792   0.35142 
C          C       0.85658   0.66418   0.19279 
C          C       0.84375   0.62174   0.06062 
C          C       0.87599   0.59331   0.08196 
N          N       0.82963   0.69408   0.17074 
C          C       0.77245   0.71996   0.01881 
C          C       0.73010   0.70982   0.36547 
C          C       0.64433   0.68871   0.04960 
C          C       0.79546   0.68634   0.02627 
C          C       0.79287   0.76064   0.15601 
O          O       0.83576   0.77002   0.30877 
H          H       0.96409   0.66072   0.49433 
H          H       0.90805   0.71064   0.45642 
H          H       0.81018   0.60984   0.43890 
H          H       0.86731   0.56048   0.47508 
H          H       0.71547   0.67841   0.26266 
H          H       0.68192   0.66523   0.49246 
H          H       0.61172   0.68725   0.44136 
H          H       0.62185   0.68133   0.09800 
H          H       0.78405   0.65475   0.40547 
S          S       0.56322   0.03071   0.26899 
C          C       0.52156   0.07094   0.26261 
C          C       0.55582   0.09795   0.28709 
C          C       0.53369   0.11240   0.19501 
C          C       0.56404   0.14048   0.23199 
C          C       0.61928   0.15243   0.35068 
C          C       0.64369   0.13637   0.43643 
C          C       0.61225   0.10929   0.40399 
N          N       0.64822   0.18073   0.37813 
C          C       0.72494   0.22218   0.48172 
C          C       0.78501   0.22992   0.06278 
C          C       0.90945   0.24262   0.21315 
C          C       0.70166   0.19254   0.46695 
C          C       0.68900   0.24254   0.41819 
O          O       0.62842   0.23453   0.33827 
H          H       0.49263   0.10246   0.09510 
H          H       0.54497   0.15258   0.16529 
H          H       0.68611   0.14496   0.03049 
H          H       0.63182   0.09801   0.47418 
H          H       0.81125   0.21407   0.11081 
H          H       0.89500   0.24948   0.31855 
H          H       0.95508   0.25267   0.26983 
H          H       0.91061   0.20844   0.09464 
H          H       0.73072   0.18028   0.02882 
S          S       0.06322   0.53070   0.26895 
C          C       0.02157   0.57093   0.26258 
C          C       0.05582   0.59795   0.28706 
C          C       0.03369   0.61240   0.19498 
C          C       0.06404   0.64047   0.23196 
C          C       0.11929   0.65242   0.35065 
C          C       0.14369   0.63637   0.43640 
C          C       0.11226   0.60928   0.40397 
N          N       0.14822   0.68073   0.37811 
C          C       0.22494   0.72218   0.48172 
C          C       0.28501   0.72992   0.06279 
C          C       0.40945   0.74263   0.21317 
C          C       0.20166   0.69254   0.46693 
C          C       0.18900   0.74254   0.41818 
O          O       0.12842   0.73453   0.33825 
H          H       0.99263   0.60245   0.09507 
H          H       0.04497   0.65257   0.16526 
H          H       0.18611   0.64496   0.03047 
H          H       0.13182   0.59800   0.47415 
H          H       0.31125   0.71407   0.11081 
H          H       0.39500   0.74948   0.31856 
H          H       0.45508   0.75268   0.26987 
H          H       0.41062   0.70844   0.09467 
H          H       0.23073   0.68028   0.02880 
S          S       0.57225   0.96157   0.29496 
C          C       0.53807   0.92524   0.26136 
C          C       0.57831   0.89346   0.26604 
C          C       0.56948   0.85050   0.12682 
C          C       0.60133   0.82208   0.14858 
C          C       0.64342   0.83582   0.30722 
C          C       0.65625   0.87826   0.43939 
C          C       0.62401   0.90669   0.41804 
N          N       0.67037   0.80592   0.32926 
C          C       0.72755   0.78004   0.48119 
C          C       0.76990   0.79018   0.13453 
C          C       0.85568   0.81129   0.45040 
C          C       0.70454   0.81366   0.47373 
C          C       0.70713   0.73936   0.34399 
O          O       0.66425   0.72998   0.19124 
H          H       0.53591   0.83928   0.00567 
H          H       0.59195   0.78936   0.04358 
H          H       0.68982   0.89016   0.06110 
H          H       0.63269   0.93952   0.02493 
H          H       0.78453   0.82159   0.23735 
H          H       0.81808   0.83477   0.00754 
H          H       0.88829   0.81275   0.05864 
H          H       0.87815   0.81867   0.40201 
H          H       0.71596   0.84525   0.09454 
S          S       0.07225   0.46157   0.29492 
C          C       0.03807   0.42523   0.26133 
C          C       0.07831   0.39345   0.26600 
C          C       0.06948   0.35050   0.12679 
C          C       0.10133   0.32207   0.14856 
C          C       0.14342   0.33581   0.30719 
C          C       0.15625   0.37825   0.43936 
C          C       0.12401   0.40669   0.41801 
N          N       0.17037   0.30592   0.32925 
C          C       0.22755   0.28004   0.48118 
C          C       0.26990   0.29018   0.13452 
C          C       0.35568   0.31129   0.45039 
C          C       0.20454   0.31366   0.47371 
C          C       0.20713   0.23936   0.34398 
O          O       0.16424   0.22998   0.19123 
H          H       0.03591   0.33927   0.00564 
H          H       0.09195   0.28936   0.04356 
H          H       0.18982   0.39015   0.06107 
H          H       0.13269   0.43951   0.02489 
H          H       0.28453   0.32159   0.23733 
H          H       0.31808   0.33477   0.00753 
H          H       0.38829   0.31275   0.05864 
H          H       0.37815   0.31867   0.40199 
H          H       0.21596   0.34524   0.09452 
S          S       0.43678   0.96930   0.23104 
C          C       0.47843   0.92907   0.23742 
C          C       0.44418   0.90205   0.21295 
C          C       0.46631   0.88760   0.30502 
C          C       0.43596   0.85953   0.26804 
C          C       0.38072   0.84758   0.14934 
C          C       0.35631   0.86363   0.06359 
C          C       0.38775   0.89071   0.09603 
N          N       0.35178   0.81927   0.12190 
C          C       0.27506   0.77782   0.01828 
C          C       0.21499   0.77008   0.43722 
C          C       0.09055   0.75737   0.28683 
C          C       0.29834   0.80746   0.03307 
C          C       0.31100   0.75746   0.08183 
O          O       0.37158   0.76547   0.16175 
H          H       0.50737   0.89755   0.40494 
H          H       0.45503   0.84743   0.33474 
H          H       0.31389   0.85504   0.46953 
H          H       0.36818   0.90200   0.02585 
H          H       0.18875   0.78593   0.38919 
H          H       0.10500   0.75052   0.18144 
H          H       0.04493   0.74732   0.23014 
H          H       0.08939   0.79156   0.40534 
H          H       0.26927   0.81972   0.47120 
S          S       0.93678   0.46929   0.23101 
C          C       0.97843   0.42906   0.23739 
C          C       0.94418   0.40205   0.21291 
C          C       0.96631   0.38760   0.30499 
C          C       0.93596   0.35952   0.26802 
C          C       0.88072   0.34758   0.14933 
C          C       0.85631   0.36363   0.06358 
C          C       0.88775   0.39071   0.09601 
N          N       0.85178   0.31927   0.12188 
C          C       0.77506   0.27782   0.01827 
C          C       0.71499   0.27008   0.43722 
C          C       0.59054   0.25738   0.28686 
C          C       0.79834   0.30746   0.03306 
C          C       0.81100   0.25746   0.08181 
O          O       0.87158   0.26547   0.16173 
H          H       0.00737   0.39754   0.40491 
H          H       0.95503   0.34742   0.33471 
H          H       0.81389   0.35504   0.46951 
H          H       0.86818   0.40200   0.02583 
H          H       0.68875   0.28593   0.38920 
H          H       0.60499   0.25052   0.18146 
H          H       0.54492   0.24733   0.23017 
H          H       0.58938   0.29157   0.40536 
H          H       0.76927   0.31972   0.47119 
C          C       0.49812   0.01443   0.24482 
C          C       0.99812   0.51443   0.24480 
C          C       0.50188   0.98557   0.25521 
C          C       0.00188   0.48557   0.25517 
S          S       0.42775   0.03843   0.70507 
C          C       0.46193   0.07477   0.73867 
C          C       0.42169   0.10655   0.73399 
C          C       0.43052   0.14950   0.87321 
C          C       0.39866   0.17793   0.85144 
C          C       0.35658   0.16418   0.69281 
C          C       0.34375   0.12174   0.56064 
C          C       0.37599   0.09331   0.58198 
N          N       0.32962   0.19408   0.67075 
C          C       0.27245   0.21996   0.51882 
C          C       0.23010   0.20982   0.86548 
C          C       0.14432   0.18871   0.54960 
C          C       0.29546   0.18634   0.52628 
C          C       0.29287   0.26064   0.65601 
O          O       0.33575   0.27002   0.80877 
H          H       0.46409   0.16072   0.99436 
H          H       0.40805   0.21064   0.95644 
H          H       0.31018   0.10985   0.93893 
H          H       0.36731   0.06048   0.97511 
H          H       0.21546   0.17841   0.76267 
H          H       0.18192   0.16523   0.99247 
H          H       0.11171   0.18725   0.94136 
H          H       0.12185   0.18133   0.59801 
H          H       0.28404   0.15476   0.90548 
S          S       0.92775   0.53843   0.70504 
C          C       0.96193   0.57476   0.73864 
C          C       0.92169   0.60654   0.73397 
C          C       0.93052   0.64950   0.87318 
C          C       0.89867   0.67792   0.85142 
C          C       0.85658   0.66418   0.69279 
C          C       0.84375   0.62174   0.56062 
C          C       0.87599   0.59331   0.58196 
N          N       0.82963   0.69408   0.67074 
C          C       0.77245   0.71996   0.51881 
C          C       0.73010   0.70982   0.86547 
C          C       0.64433   0.68871   0.54960 
C          C       0.79546   0.68634   0.52627 
C          C       0.79287   0.76064   0.65601 
O          O       0.83576   0.77002   0.80877 
H          H       0.96409   0.66072   0.99433 
H          H       0.90805   0.71064   0.95642 
H          H       0.81018   0.60984   0.93890 
H          H       0.86731   0.56048   0.97508 
H          H       0.71547   0.67841   0.76266 
H          H       0.68192   0.66523   0.99246 
H          H       0.61172   0.68725   0.94136 
H          H       0.62185   0.68133   0.59800 
H          H       0.78405   0.65475   0.90546 
S          S       0.56322   0.03071   0.76899 
C          C       0.52156   0.07094   0.76261 
C          C       0.55582   0.09795   0.78709 
C          C       0.53369   0.11240   0.69501 
C          C       0.56404   0.14048   0.73198 
C          C       0.61928   0.15243   0.85068 
C          C       0.64369   0.13637   0.93643 
C          C       0.61225   0.10929   0.90400 
N          N       0.64822   0.18073   0.87813 
C          C       0.72494   0.22218   0.98173 
C          C       0.78501   0.22992   0.56279 
C          C       0.90945   0.24262   0.71315 
C          C       0.70166   0.19254   0.96695 
C          C       0.68900   0.24254   0.91819 
O          O       0.62842   0.23453   0.83827 
H          H       0.49263   0.10246   0.59510 
H          H       0.54497   0.15258   0.66529 
H          H       0.68611   0.14496   0.53049 
H          H       0.63182   0.09801   0.97418 
H          H       0.81125   0.21407   0.61081 
H          H       0.89500   0.24948   0.81855 
H          H       0.95508   0.25267   0.76984 
H          H       0.91061   0.20844   0.59464 
H          H       0.73072   0.18028   0.52882 
S          S       0.06322   0.53070   0.76895 
C          C       0.02157   0.57093   0.76258 
C          C       0.05582   0.59795   0.78705 
C          C       0.03369   0.61240   0.69498 
C          C       0.06404   0.64047   0.73196 
C          C       0.11929   0.65242   0.85066 
C          C       0.14369   0.63637   0.93641 
C          C       0.11226   0.60928   0.90397 
N          N       0.14822   0.68073   0.87811 
C          C       0.22494   0.72218   0.98172 
C          C       0.28501   0.72992   0.56279 
C          C       0.40945   0.74263   0.71317 
C          C       0.20166   0.69254   0.96693 
C          C       0.18900   0.74254   0.91818 
O          O       0.12842   0.73453   0.83825 
H          H       0.99263   0.60245   0.59507 
H          H       0.04497   0.65257   0.66526 
H          H       0.18611   0.64496   0.53047 
H          H       0.13182   0.59800   0.97415 
H          H       0.31125   0.71407   0.61081 
H          H       0.39500   0.74948   0.81856 
H          H       0.45508   0.75268   0.76987 
H          H       0.41062   0.70844   0.59466 
H          H       0.23073   0.68028   0.52880 
S          S       0.57225   0.96157   0.79496 
C          C       0.53807   0.92524   0.76137 
C          C       0.57831   0.89346   0.76604 
C          C       0.56948   0.85050   0.62682 
C          C       0.60133   0.82208   0.64859 
C          C       0.64342   0.83582   0.80722 
C          C       0.65625   0.87826   0.93939 
C          C       0.62401   0.90669   0.91804 
N          N       0.67037   0.80592   0.82926 
C          C       0.72755   0.78004   0.98119 
C          C       0.76990   0.79018   0.63453 
C          C       0.85568   0.81129   0.95040 
C          C       0.70454   0.81366   0.97373 
C          C       0.70713   0.73936   0.84399 
O          O       0.66425   0.72998   0.69124 
H          H       0.53591   0.83928   0.50567 
H          H       0.59195   0.78936   0.54358 
H          H       0.68982   0.89016   0.56110 
H          H       0.63269   0.93952   0.52493 
H          H       0.78453   0.82159   0.73735 
H          H       0.81808   0.83477   0.50754 
H          H       0.88829   0.81275   0.55865 
H          H       0.87815   0.81867   0.90201 
H          H       0.71596   0.84525   0.59454 
S          S       0.07225   0.46157   0.79492 
C          C       0.03807   0.42523   0.76134 
C          C       0.07831   0.39345   0.76600 
C          C       0.06948   0.35050   0.62680 
C          C       0.10133   0.32207   0.64856 
C          C       0.14342   0.33581   0.80719 
C          C       0.15625   0.37825   0.93936 
C          C       0.12401   0.40669   0.91801 
N          N       0.17037   0.30592   0.82925 
C          C       0.22755   0.28004   0.98118 
C          C       0.26990   0.29018   0.63452 
C          C       0.35568   0.31129   0.95039 
C          C       0.20454   0.31366   0.97372 
C          C       0.20713   0.23936   0.84399 
O          O       0.16424   0.22998   0.69123 
H          H       0.03591   0.33927   0.50565 
H          H       0.09195   0.28936   0.54356 
H          H       0.18982   0.39015   0.56107 
H          H       0.13269   0.43951   0.52489 
H          H       0.28453   0.32159   0.73733 
H          H       0.31808   0.33477   0.50753 
H          H       0.38829   0.31275   0.55864 
H          H       0.37815   0.31867   0.90199 
H          H       0.21596   0.34524   0.59452 
S          S       0.43678   0.96930   0.73104 
C          C       0.47843   0.92907   0.73742 
C          C       0.44418   0.90205   0.71295 
C          C       0.46631   0.88760   0.80502 
C          C       0.43596   0.85953   0.76804 
C          C       0.38072   0.84758   0.64935 
C          C       0.35631   0.86363   0.56359 
C          C       0.38775   0.89071   0.59603 
N          N       0.35178   0.81927   0.62189 
C          C       0.27506   0.77782   0.51828 
C          C       0.21499   0.77008   0.93722 
C          C       0.09055   0.75737   0.78683 
C          C       0.29834   0.80746   0.53307 
C          C       0.31100   0.75746   0.58183 
O          O       0.37158   0.76547   0.66176 
H          H       0.50737   0.89755   0.90494 
H          H       0.45503   0.84743   0.83474 
H          H       0.31389   0.85504   0.96953 
H          H       0.36818   0.90200   0.52585 
H          H       0.18875   0.78593   0.88919 
H          H       0.10500   0.75052   0.68144 
H          H       0.04493   0.74732   0.73014 
H          H       0.08939   0.79156   0.90534 
H          H       0.26927   0.81972   0.97120 
S          S       0.93678   0.46929   0.73101 
C          C       0.97843   0.42906   0.73739 
C          C       0.94418   0.40205   0.71292 
C          C       0.96631   0.38760   0.80499 
C          C       0.93596   0.35952   0.76802 
C          C       0.88072   0.34758   0.64933 
C          C       0.85631   0.36363   0.56358 
C          C       0.88775   0.39071   0.59601 
N          N       0.85178   0.31927   0.62188 
C          C       0.77506   0.27782   0.51828 
C          C       0.71499   0.27008   0.93722 
C          C       0.59054   0.25738   0.78686 
C          C       0.79834   0.30746   0.53306 
C          C       0.81100   0.25746   0.58181 
O          O       0.87158   0.26547   0.66173 
H          H       0.00737   0.39754   0.90490 
H          H       0.95503   0.34742   0.83471 
H          H       0.81389   0.35504   0.96951 
H          H       0.86818   0.40200   0.52583 
H          H       0.68875   0.28593   0.88920 
H          H       0.60499   0.25052   0.68146 
H          H       0.54492   0.24733   0.73017 
H          H       0.58938   0.29157   0.90536 
H          H       0.76927   0.31972   0.97119 
C          C       0.49812   0.01443   0.74482 
C          C       0.99812   0.51443   0.74480 
C          C       0.50188   0.98557   0.75521 
C          C       0.00188   0.48557   0.75518 
