data_crystal

_cell_length_a    26.18500
_cell_length_b    26.18500
_cell_length_c    9.55400
_cell_angle_alpha 90.00000
_cell_angle_beta  90.00000
_cell_angle_gamma 120.00000

_space_group_name_Hall 'P 1'
_space_group_name_H-M_alt  'P 1'

loop_
_symmetry_equiv_pos_as_xyz
'x,y,z' 

loop_
_atom_site_label
_atom_site_type_symbol
_atom_site_fract_x
_atom_site_fract_y
_atom_site_fract_z
C          C       0.22134   0.14342   0.36057 
C          C       0.85658   0.07792   0.36057 
C          C       0.92208   0.77866   0.36057 
C          C       0.15962   0.11258   0.36310 
C          C       0.88742   0.04704   0.36310 
C          C       0.95296   0.84038   0.36310 
C          C       0.12765   0.06315   0.27663 
C          C       0.93685   0.06450   0.27663 
C          C       0.93550   0.87235   0.27663 
C          C       0.15867   0.04526   0.18796 
C          C       0.95474   0.11341   0.18796 
C          C       0.88659   0.84133   0.18796 
C          C       0.22042   0.07601   0.18641 
C          C       0.92399   0.14441   0.18641 
C          C       0.85559   0.77958   0.18641 
C          C       0.25201   0.12507   0.27397 
C          C       0.87493   0.12694   0.27397 
C          C       0.87306   0.74799   0.27397 
C          C       0.06219   0.03076   0.27757 
C          C       0.96924   0.03143   0.27757 
C          C       0.96857   0.93781   0.27757 
C          C       0.03116   0.06167   0.27760 
C          C       0.93833   0.96949   0.27760 
C          C       0.03051   0.96884   0.27760 
C          C       0.60479   0.29628   0.19995 
C          C       0.70372   0.30851   0.19995 
C          C       0.69149   0.39521   0.19995 
C          C       0.53973   0.25728   0.21141 
C          C       0.74272   0.28245   0.21141 
C          C       0.71755   0.46027   0.21141 
C          C       0.50669   0.27312   0.29823 
C          C       0.72688   0.23357   0.29823 
C          C       0.76643   0.49331   0.29823 
C          C       0.44505   0.23666   0.31359 
C          C       0.76334   0.20839   0.31359 
C          C       0.79161   0.55495   0.31359 
C          C       0.41617   0.18218   0.23939 
C          C       0.81782   0.23399   0.23939 
C          C       0.76601   0.58383   0.23939 
C          C       0.44996   0.16634   0.15465 
C          C       0.83366   0.28362   0.15465 
C          C       0.71638   0.55004   0.15465 
C          C       0.51067   0.20348   0.13983 
C          C       0.79652   0.30719   0.13983 
C          C       0.69281   0.48933   0.13983 
C          C       0.35137   0.14097   0.24096 
C          C       0.85903   0.21040   0.24096 
C          C       0.78960   0.64863   0.24096 
N          N       0.31502   0.15899   0.27441 
N          N       0.84101   0.15603   0.27441 
N          N       0.84397   0.68498   0.27441 
C          C       0.41292   0.25553   0.41547 
C          C       0.74447   0.15739   0.41547 
C          C       0.84261   0.58708   0.41547 
F          F       0.45253   0.29900   0.00516 
F          F       0.70100   0.15353   0.00516 
F          F       0.84647   0.54747   0.00516 
F          F       0.37490   0.20851   0.49804 
F          F       0.79149   0.16639   0.49804 
F          F       0.83361   0.62510   0.49804 
F          F       0.38134   0.27699   0.34613 
F          F       0.72301   0.10435   0.34613 
F          F       0.89565   0.61866   0.34613 
C          C       0.63001   0.35793   0.19877 
C          C       0.64207   0.27208   0.19877 
C          C       0.72792   0.36999   0.19877 
H          H       0.24630   0.18170   0.42690 
H          H       0.81830   0.06460   0.42690 
H          H       0.93540   0.75370   0.42690 
H          H       0.13690   0.12690   0.43371 
H          H       0.87310   0.01000   0.43371 
H          H       0.99000   0.86310   0.43371 
H          H       0.13506   0.00838   0.11734 
H          H       0.99162   0.12668   0.11734 
H          H       0.87332   0.86494   0.11734 
H          H       0.24326   0.06264   0.11405 
H          H       0.93736   0.18062   0.11405 
H          H       0.81938   0.75674   0.11405 
H          H       0.05528   0.10942   0.27726 
H          H       0.89058   0.94586   0.27726 
H          H       0.05414   0.94472   0.27726 
H          H       0.52926   0.31398   0.35659 
H          H       0.68602   0.21528   0.35659 
H          H       0.78472   0.47074   0.35659 
H          H       0.42875   0.12556   0.09559 
H          H       0.87444   0.30319   0.09559 
H          H       0.69681   0.57125   0.09559 
H          H       0.53480   0.19049   0.07014 
H          H       0.80951   0.34431   0.07014 
H          H       0.65569   0.46520   0.07014 
H          H       0.33479   0.09593   0.20728 
H          H       0.90407   0.23886   0.20728 
H          H       0.76114   0.66521   0.20728 
H          H       0.60158   0.37693   0.20038 
H          H       0.62307   0.22465   0.20038 
H          H       0.77535   0.39842   0.20038 
C          C       0.22134   0.14342   0.86057 
C          C       0.85658   0.07792   0.86057 
C          C       0.92208   0.77866   0.86057 
C          C       0.15962   0.11258   0.86310 
C          C       0.88742   0.04704   0.86310 
C          C       0.95296   0.84038   0.86310 
C          C       0.12765   0.06315   0.77663 
C          C       0.93685   0.06450   0.77663 
C          C       0.93550   0.87235   0.77663 
C          C       0.15867   0.04526   0.68795 
C          C       0.95474   0.11341   0.68795 
C          C       0.88659   0.84133   0.68795 
C          C       0.22042   0.07601   0.68641 
C          C       0.92399   0.14441   0.68641 
C          C       0.85559   0.77958   0.68641 
C          C       0.25201   0.12507   0.77397 
C          C       0.87493   0.12694   0.77397 
C          C       0.87306   0.74799   0.77397 
C          C       0.06219   0.03076   0.77757 
C          C       0.96924   0.03143   0.77757 
C          C       0.96857   0.93781   0.77757 
C          C       0.03116   0.06167   0.77760 
C          C       0.93833   0.96949   0.77760 
C          C       0.03051   0.96884   0.77760 
C          C       0.60479   0.29628   0.69994 
C          C       0.70372   0.30851   0.69994 
C          C       0.69149   0.39521   0.69994 
C          C       0.53973   0.25728   0.71141 
C          C       0.74272   0.28245   0.71141 
C          C       0.71755   0.46027   0.71141 
C          C       0.50669   0.27312   0.79823 
C          C       0.72688   0.23357   0.79823 
C          C       0.76643   0.49331   0.79823 
C          C       0.44505   0.23666   0.81359 
C          C       0.76334   0.20839   0.81359 
C          C       0.79161   0.55495   0.81359 
C          C       0.41617   0.18218   0.73939 
C          C       0.81782   0.23399   0.73939 
C          C       0.76601   0.58383   0.73939 
C          C       0.44996   0.16634   0.65465 
C          C       0.83366   0.28362   0.65465 
C          C       0.71638   0.55004   0.65465 
C          C       0.51067   0.20348   0.63983 
C          C       0.79652   0.30719   0.63983 
C          C       0.69281   0.48933   0.63983 
C          C       0.35137   0.14097   0.74096 
C          C       0.85903   0.21040   0.74096 
C          C       0.78960   0.64863   0.74096 
N          N       0.31502   0.15899   0.77441 
N          N       0.84101   0.15603   0.77441 
N          N       0.84397   0.68498   0.77441 
C          C       0.41292   0.25553   0.91547 
C          C       0.74447   0.15739   0.91547 
C          C       0.84261   0.58708   0.91547 
F          F       0.45253   0.29900   0.50516 
F          F       0.70100   0.15353   0.50516 
F          F       0.84647   0.54747   0.50516 
F          F       0.37490   0.20851   0.99804 
F          F       0.79149   0.16639   0.99804 
F          F       0.83361   0.62510   0.99804 
F          F       0.38134   0.27699   0.84613 
F          F       0.72301   0.10435   0.84613 
F          F       0.89565   0.61866   0.84613 
C          C       0.63001   0.35793   0.69877 
C          C       0.64207   0.27208   0.69877 
C          C       0.72792   0.36999   0.69877 
H          H       0.24630   0.18170   0.92690 
H          H       0.81830   0.06460   0.92690 
H          H       0.93540   0.75370   0.92690 
H          H       0.13690   0.12690   0.93371 
H          H       0.87310   0.01000   0.93371 
H          H       0.99000   0.86310   0.93371 
H          H       0.13506   0.00838   0.61734 
H          H       0.99162   0.12668   0.61734 
H          H       0.87332   0.86494   0.61734 
H          H       0.24326   0.06264   0.61405 
H          H       0.93736   0.18062   0.61405 
H          H       0.81938   0.75674   0.61405 
H          H       0.05528   0.10942   0.77726 
H          H       0.89058   0.94586   0.77726 
H          H       0.05414   0.94472   0.77726 
H          H       0.52926   0.31398   0.85659 
H          H       0.68602   0.21528   0.85659 
H          H       0.78472   0.47074   0.85659 
H          H       0.42875   0.12556   0.59560 
H          H       0.87444   0.30319   0.59560 
H          H       0.69681   0.57125   0.59560 
H          H       0.53480   0.19049   0.57014 
H          H       0.80951   0.34431   0.57014 
H          H       0.65569   0.46520   0.57014 
H          H       0.33479   0.09593   0.70728 
H          H       0.90407   0.23886   0.70728 
H          H       0.76114   0.66521   0.70728 
H          H       0.60158   0.37693   0.70038 
H          H       0.62307   0.22465   0.70038 
H          H       0.77535   0.39842   0.70038 
