data_crystal

_cell_length_a    24.71900
_cell_length_b    24.71900
_cell_length_c    7.26000
_cell_angle_alpha 90.00000
_cell_angle_beta  90.00000
_cell_angle_gamma 120.00000

_space_group_name_Hall 'P 1'
_space_group_name_H-M_alt  'P 1'

loop_
_symmetry_equiv_pos_as_xyz
'x,y,z' 

loop_
_atom_site_label
_atom_site_type_symbol
_atom_site_fract_x
_atom_site_fract_y
_atom_site_fract_z
C          C       0.05999   0.03005   0.21964 
C          C       0.96995   0.02994   0.21964 
C          C       0.97006   0.94001   0.21964 
N          N       0.02974   0.05958   0.21975 
N          N       0.94042   0.97016   0.21975 
N          N       0.02984   0.97026   0.21975 
C          C       0.12543   0.06281   0.22315 
C          C       0.93719   0.06262   0.22315 
C          C       0.93738   0.87457   0.22315 
C          C       0.15727   0.03354   0.19007 
C          C       0.96646   0.12373   0.19007 
C          C       0.87627   0.84273   0.19007 
C          C       0.21892   0.06439   0.19664 
C          C       0.93561   0.15453   0.19664 
C          C       0.84547   0.78108   0.19664 
C          C       0.25003   0.12469   0.23643 
C          C       0.87531   0.12534   0.23643 
C          C       0.87466   0.74997   0.23643 
C          C       0.21841   0.15421   0.27026 
C          C       0.84579   0.06420   0.27026 
C          C       0.93580   0.78159   0.27026 
C          C       0.15674   0.12355   0.26260 
C          C       0.87645   0.03319   0.26260 
C          C       0.96681   0.84326   0.26260 
N          N       0.31325   0.15325   0.24572 
N          N       0.84675   0.16000   0.24572 
N          N       0.84000   0.68675   0.24572 
C          C       0.35009   0.20926   0.26578 
C          C       0.79074   0.14083   0.26578 
C          C       0.85917   0.64991   0.26578 
C          C       0.41451   0.23256   0.26681 
C          C       0.76744   0.18195   0.26681 
C          C       0.81805   0.58549   0.26681 
C          C       0.44143   0.20105   0.33726 
C          C       0.79895   0.24038   0.33726 
C          C       0.75962   0.55857   0.33726 
C          C       0.50257   0.22605   0.32654 
C          C       0.77395   0.27652   0.32654 
C          C       0.72348   0.49743   0.32654 
C          C       0.53878   0.28196   0.24710 
C          C       0.71804   0.25682   0.24710 
C          C       0.74318   0.46122   0.24710 
C          C       0.51147   0.31267   0.17807 
C          C       0.68733   0.19880   0.17807 
C          C       0.80120   0.48853   0.17807 
C          C       0.45050   0.28876   0.19071 
C          C       0.71124   0.16174   0.19071 
C          C       0.83826   0.54950   0.19071 
C          C       0.60451   0.30837   0.24030 
C          C       0.69163   0.29614   0.24030 
C          C       0.70386   0.39549   0.24030 
C          C       0.63008   0.27217   0.23949 
C          C       0.72783   0.35791   0.23949 
C          C       0.64209   0.36992   0.23949 
O          O       0.41080   0.14709   0.42990 
O          O       0.85291   0.26371   0.42990 
O          O       0.73629   0.58920   0.42990 
H          H       0.13440   0.98684   0.15846 
H          H       0.01316   0.14756   0.15846 
H          H       0.85244   0.86560   0.15846 
H          H       0.24303   0.04147   0.17090 
H          H       0.95853   0.20156   0.17090 
H          H       0.79844   0.75697   0.17090 
H          H       0.24052   0.20038   0.30575 
H          H       0.79962   0.04014   0.30575 
H          H       0.95986   0.75948   0.30575 
H          H       0.13334   0.14708   0.29097 
H          H       0.85292   0.98626   0.29097 
H          H       0.01374   0.86666   0.29097 
H          H       0.33492   0.24079   0.26665 
H          H       0.75921   0.09413   0.26665 
H          H       0.90587   0.66508   0.26665 
H          H       0.52114   0.20177   0.39044 
H          H       0.79823   0.31937   0.39044 
H          H       0.68063   0.47886   0.39044 
H          H       0.53666   0.35463   0.10879 
H          H       0.64537   0.18203   0.10879 
H          H       0.81797   0.46334   0.10879 
H          H       0.43104   0.31346   0.13420 
H          H       0.68654   0.11758   0.13420 
H          H       0.88242   0.56896   0.13420 
H          H       0.60183   0.22498   0.24009 
H          H       0.77502   0.37685   0.24009 
H          H       0.62315   0.39817   0.24009 
H          H       0.36908   0.13531   0.46638 
H          H       0.86469   0.23377   0.46638 
H          H       0.76623   0.63092   0.46638 
C          C       0.05999   0.03005   0.71964 
C          C       0.96995   0.02994   0.71964 
C          C       0.97006   0.94001   0.71964 
N          N       0.02974   0.05958   0.71976 
N          N       0.94042   0.97016   0.71976 
N          N       0.02984   0.97026   0.71976 
C          C       0.12543   0.06281   0.72315 
C          C       0.93719   0.06262   0.72315 
C          C       0.93738   0.87457   0.72315 
C          C       0.15727   0.03354   0.69007 
C          C       0.96646   0.12373   0.69007 
C          C       0.87627   0.84273   0.69007 
C          C       0.21892   0.06439   0.69664 
C          C       0.93561   0.15453   0.69664 
C          C       0.84547   0.78108   0.69664 
C          C       0.25003   0.12469   0.73643 
C          C       0.87531   0.12534   0.73643 
C          C       0.87466   0.74997   0.73643 
C          C       0.21841   0.15421   0.77026 
C          C       0.84579   0.06420   0.77026 
C          C       0.93580   0.78159   0.77026 
C          C       0.15674   0.12355   0.76260 
C          C       0.87645   0.03319   0.76260 
C          C       0.96681   0.84326   0.76260 
N          N       0.31325   0.15325   0.74572 
N          N       0.84675   0.16000   0.74572 
N          N       0.84000   0.68675   0.74572 
C          C       0.35009   0.20926   0.76578 
C          C       0.79074   0.14083   0.76578 
C          C       0.85917   0.64991   0.76578 
C          C       0.41451   0.23256   0.76681 
C          C       0.76744   0.18195   0.76681 
C          C       0.81805   0.58549   0.76681 
C          C       0.44143   0.20105   0.83726 
C          C       0.79895   0.24038   0.83726 
C          C       0.75962   0.55857   0.83726 
C          C       0.50257   0.22605   0.82654 
C          C       0.77395   0.27652   0.82654 
C          C       0.72348   0.49743   0.82654 
C          C       0.53878   0.28196   0.74709 
C          C       0.71804   0.25682   0.74709 
C          C       0.74318   0.46122   0.74709 
C          C       0.51147   0.31267   0.67807 
C          C       0.68733   0.19880   0.67807 
C          C       0.80120   0.48853   0.67807 
C          C       0.45050   0.28876   0.69071 
C          C       0.71124   0.16174   0.69071 
C          C       0.83826   0.54950   0.69071 
C          C       0.60451   0.30837   0.74030 
C          C       0.69163   0.29614   0.74030 
C          C       0.70386   0.39549   0.74030 
C          C       0.63008   0.27217   0.73949 
C          C       0.72783   0.35791   0.73949 
C          C       0.64209   0.36992   0.73949 
O          O       0.41080   0.14709   0.92990 
O          O       0.85291   0.26371   0.92990 
O          O       0.73629   0.58920   0.92990 
H          H       0.13440   0.98684   0.65846 
H          H       0.01316   0.14756   0.65846 
H          H       0.85244   0.86560   0.65846 
H          H       0.24303   0.04147   0.67090 
H          H       0.95853   0.20156   0.67090 
H          H       0.79844   0.75697   0.67090 
H          H       0.24052   0.20038   0.80575 
H          H       0.79962   0.04014   0.80575 
H          H       0.95986   0.75948   0.80575 
H          H       0.13334   0.14708   0.79097 
H          H       0.85292   0.98626   0.79097 
H          H       0.01374   0.86666   0.79097 
H          H       0.33492   0.24079   0.76665 
H          H       0.75921   0.09413   0.76665 
H          H       0.90587   0.66508   0.76665 
H          H       0.52114   0.20177   0.89044 
H          H       0.79823   0.31937   0.89044 
H          H       0.68063   0.47886   0.89044 
H          H       0.53666   0.35463   0.60879 
H          H       0.64537   0.18203   0.60879 
H          H       0.81797   0.46334   0.60879 
H          H       0.43104   0.31346   0.63420 
H          H       0.68654   0.11758   0.63420 
H          H       0.88242   0.56896   0.63420 
H          H       0.60183   0.22498   0.74009 
H          H       0.77502   0.37685   0.74009 
H          H       0.62315   0.39817   0.74009 
H          H       0.36908   0.13531   0.96638 
H          H       0.86469   0.23377   0.96638 
H          H       0.76623   0.63092   0.96638 
