data_crystal

_cell_length_a    26.07700
_cell_length_b    26.07700
_cell_length_c    8.57200
_cell_angle_alpha 90.00000
_cell_angle_beta  90.00000
_cell_angle_gamma 120.00000

_space_group_name_Hall 'P 1'
_space_group_name_H-M_alt  'P 1'

loop_
_symmetry_equiv_pos_as_xyz
'x,y,z' 

loop_
_atom_site_label
_atom_site_type_symbol
_atom_site_fract_x
_atom_site_fract_y
_atom_site_fract_z
C          C       0.22095   0.15244   0.27993 
C          C       0.84756   0.06851   0.27993 
C          C       0.93149   0.77905   0.27993 
C          C       0.15904   0.12257   0.28669 
C          C       0.87743   0.03647   0.28669 
C          C       0.96353   0.84096   0.28669 
C          C       0.12605   0.06082   0.26521 
C          C       0.93918   0.06523   0.26521 
C          C       0.93477   0.87395   0.26521 
C          C       0.15658   0.02986   0.23789 
C          C       0.97014   0.12672   0.23789 
C          C       0.87328   0.84342   0.23789 
C          C       0.21854   0.05995   0.23067 
C          C       0.94005   0.15859   0.23067 
C          C       0.84141   0.78146   0.23067 
C          C       0.25108   0.12170   0.25167 
C          C       0.87830   0.12938   0.25167 
C          C       0.87062   0.74892   0.25167 
C          C       0.06026   0.02906   0.26854 
C          C       0.97094   0.03120   0.26854 
C          C       0.96880   0.93974   0.26854 
N          N       0.03096   0.05980   0.26843 
N          N       0.94020   0.97116   0.26843 
N          N       0.02884   0.96904   0.26843 
C          C       0.60440   0.29590   0.13875 
C          C       0.70410   0.30850   0.13875 
C          C       0.69150   0.39560   0.13875 
C          C       0.53903   0.25648   0.15840 
C          C       0.74352   0.28255   0.15840 
C          C       0.71745   0.46097   0.15840 
C          C       0.50606   0.27549   0.24606 
C          C       0.72451   0.23057   0.24606 
C          C       0.76943   0.49394   0.24606 
C          C       0.44472   0.23872   0.27228 
C          C       0.76128   0.20600   0.27228 
C          C       0.79400   0.55528   0.27228 
C          C       0.41621   0.17978   0.21285 
C          C       0.82022   0.23643   0.21285 
C          C       0.76357   0.58379   0.21285 
C          C       0.44956   0.16090   0.12641 
C          C       0.83910   0.28866   0.12641 
C          C       0.71134   0.55044   0.12641 
C          C       0.50965   0.19887   0.09716 
C          C       0.80113   0.31078   0.09716 
C          C       0.68922   0.49035   0.09716 
C          C       0.35188   0.13706   0.22941 
C          C       0.86294   0.21482   0.22941 
C          C       0.78518   0.64812   0.22941 
N          N       0.31433   0.15565   0.24237 
N          N       0.84435   0.15868   0.24237 
N          N       0.84132   0.68567   0.24237 
C          C       0.41285   0.26260   0.37177 
C          C       0.73740   0.15025   0.37177 
C          C       0.84975   0.58715   0.37177 
F          F       0.45330   0.31114   0.45832 
F          F       0.68886   0.14216   0.45832 
F          F       0.85784   0.54670   0.45832 
F          F       0.37610   0.22034   0.47735 
F          F       0.77966   0.15576   0.47735 
F          F       0.84424   0.62390   0.47735 
F          F       0.37954   0.27917   0.28243 
F          F       0.72083   0.10037   0.28243 
F          F       0.89963   0.62046   0.28243 
C          C       0.62977   0.35786   0.13636 
C          C       0.64214   0.27191   0.13636 
C          C       0.72809   0.37023   0.13636 
H          H       0.24658   0.20010   0.29607 
H          H       0.79990   0.04648   0.29607 
H          H       0.95352   0.75342   0.29607 
H          H       0.13691   0.14767   0.30854 
H          H       0.85233   0.98924   0.30854 
H          H       0.01076   0.86309   0.30854 
H          H       0.13233   0.98236   0.21987 
H          H       0.01764   0.14997   0.21987 
H          H       0.85003   0.86767   0.21987 
H          H       0.24026   0.03481   0.20675 
H          H       0.96519   0.20545   0.20675 
H          H       0.79455   0.75974   0.20675 
H          H       0.52825   0.31920   0.29763 
H          H       0.68080   0.20905   0.29763 
H          H       0.79095   0.47175   0.29763 
H          H       0.42837   0.11675   0.07677 
H          H       0.88325   0.31162   0.07677 
H          H       0.68838   0.57163   0.07677 
H          H       0.53293   0.18304   0.02486 
H          H       0.81696   0.34989   0.02486 
H          H       0.65011   0.46707   0.02486 
H          H       0.33687   0.09035   0.22008 
H          H       0.90965   0.24652   0.22008 
H          H       0.75348   0.66313   0.22008 
H          H       0.60121   0.37681   0.13813 
H          H       0.62319   0.22440   0.13813 
H          H       0.77560   0.39879   0.13813 
C          C       0.22095   0.15244   0.77993 
C          C       0.84756   0.06851   0.77993 
C          C       0.93149   0.77905   0.77993 
C          C       0.15904   0.12257   0.78670 
C          C       0.87743   0.03647   0.78670 
C          C       0.96353   0.84096   0.78670 
C          C       0.12605   0.06082   0.76521 
C          C       0.93918   0.06523   0.76521 
C          C       0.93477   0.87395   0.76521 
C          C       0.15658   0.02986   0.73789 
C          C       0.97014   0.12672   0.73789 
C          C       0.87328   0.84342   0.73789 
C          C       0.21854   0.05995   0.73067 
C          C       0.94005   0.15859   0.73067 
C          C       0.84141   0.78146   0.73067 
C          C       0.25108   0.12170   0.75167 
C          C       0.87830   0.12938   0.75167 
C          C       0.87062   0.74892   0.75167 
C          C       0.06026   0.02906   0.76855 
C          C       0.97094   0.03120   0.76855 
C          C       0.96880   0.93974   0.76855 
N          N       0.03096   0.05980   0.76843 
N          N       0.94020   0.97116   0.76843 
N          N       0.02884   0.96904   0.76843 
C          C       0.60440   0.29590   0.63875 
C          C       0.70410   0.30850   0.63875 
C          C       0.69150   0.39560   0.63875 
C          C       0.53903   0.25648   0.65839 
C          C       0.74352   0.28255   0.65839 
C          C       0.71745   0.46097   0.65839 
C          C       0.50606   0.27549   0.74606 
C          C       0.72451   0.23057   0.74606 
C          C       0.76943   0.49394   0.74606 
C          C       0.44472   0.23872   0.77228 
C          C       0.76128   0.20600   0.77228 
C          C       0.79400   0.55528   0.77228 
C          C       0.41621   0.17978   0.71285 
C          C       0.82022   0.23643   0.71285 
C          C       0.76357   0.58379   0.71285 
C          C       0.44956   0.16090   0.62641 
C          C       0.83910   0.28866   0.62641 
C          C       0.71134   0.55044   0.62641 
C          C       0.50965   0.19887   0.59716 
C          C       0.80113   0.31078   0.59716 
C          C       0.68922   0.49035   0.59716 
C          C       0.35188   0.13706   0.72941 
C          C       0.86294   0.21482   0.72941 
C          C       0.78518   0.64812   0.72941 
N          N       0.31433   0.15565   0.74237 
N          N       0.84435   0.15868   0.74237 
N          N       0.84132   0.68567   0.74237 
C          C       0.41285   0.26260   0.87177 
C          C       0.73740   0.15025   0.87177 
C          C       0.84975   0.58715   0.87177 
F          F       0.45330   0.31114   0.95832 
F          F       0.68886   0.14216   0.95832 
F          F       0.85784   0.54670   0.95832 
F          F       0.37610   0.22034   0.97735 
F          F       0.77966   0.15576   0.97735 
F          F       0.84424   0.62390   0.97735 
F          F       0.37954   0.27917   0.78243 
F          F       0.72083   0.10037   0.78243 
F          F       0.89963   0.62046   0.78243 
C          C       0.62977   0.35786   0.63636 
C          C       0.64214   0.27191   0.63636 
C          C       0.72809   0.37023   0.63636 
H          H       0.24658   0.20010   0.79607 
H          H       0.79990   0.04648   0.79607 
H          H       0.95352   0.75342   0.79607 
H          H       0.13691   0.14767   0.80854 
H          H       0.85233   0.98924   0.80854 
H          H       0.01076   0.86309   0.80854 
H          H       0.13233   0.98236   0.71987 
H          H       0.01764   0.14997   0.71987 
H          H       0.85003   0.86767   0.71987 
H          H       0.24026   0.03481   0.70675 
H          H       0.96519   0.20545   0.70675 
H          H       0.79455   0.75974   0.70675 
H          H       0.52825   0.31920   0.79763 
H          H       0.68080   0.20905   0.79763 
H          H       0.79095   0.47175   0.79763 
H          H       0.42837   0.11675   0.57678 
H          H       0.88325   0.31162   0.57678 
H          H       0.68838   0.57163   0.57678 
H          H       0.53293   0.18304   0.52486 
H          H       0.81696   0.34989   0.52486 
H          H       0.65011   0.46707   0.52486 
H          H       0.33687   0.09035   0.72008 
H          H       0.90965   0.24652   0.72008 
H          H       0.75348   0.66313   0.72008 
H          H       0.60121   0.37681   0.63813 
H          H       0.62319   0.22440   0.63813 
H          H       0.77560   0.39879   0.63813 
