data_crystal

_cell_length_a    42.89650
_cell_length_b    42.89650
_cell_length_c    7.90440
_cell_angle_alpha 90.00000
_cell_angle_beta  90.00000
_cell_angle_gamma 120.00000

_space_group_name_Hall 'P 1'
_space_group_name_H-M_alt  'P 1'

loop_
_symmetry_equiv_pos_as_xyz
'x,y,z' 

loop_
_atom_site_label
_atom_site_type_symbol
_atom_site_fract_x
_atom_site_fract_y
_atom_site_fract_z
C          C       0.35121   0.64751   0.00000 
C          C       0.35249   0.70370   0.00000 
C          C       0.29630   0.64879   0.00000 
C          C       0.31428   0.62983   0.00000 
C          C       0.37017   0.68445   0.00000 
C          C       0.31555   0.68572   0.00000 
C          C       0.65161   0.35512   0.00000 
C          C       0.64488   0.29649   0.00000 
C          C       0.70351   0.34839   0.00000 
C          C       0.68834   0.36998   0.00000 
C          C       0.63002   0.31836   0.00000 
C          C       0.68164   0.31166   0.00000 
C          C       0.59744   0.36344   0.00000 
C          C       0.63656   0.23400   0.00000 
C          C       0.76600   0.40256   0.00000 
C          C       0.58198   0.38576   0.00000 
C          C       0.61424   0.19622   0.00000 
C          C       0.80378   0.41802   0.00000 
C          C       0.60413   0.42359   0.00000 
C          C       0.57641   0.18054   0.00000 
C          C       0.81946   0.39587   0.00000 
C          C       0.64210   0.43897   0.00000 
C          C       0.56103   0.20313   0.00000 
C          C       0.79687   0.35790   0.00000 
C          C       0.65755   0.41663   0.00000 
C          C       0.58337   0.24092   0.00000 
C          C       0.75908   0.34245   0.00000 
C          C       0.63533   0.37869   0.00000 
C          C       0.62131   0.25664   0.00000 
C          C       0.74336   0.36467   0.00000 
C          C       0.60584   0.48092   0.00000 
C          C       0.51908   0.12492   0.00000 
C          C       0.87508   0.39416   0.00000 
N          N       0.58744   0.44570   0.00000 
N          N       0.55430   0.14174   0.00000 
N          N       0.85826   0.41256   0.00000 
S          S       0.54122   0.48331   0.00000 
S          S       0.51669   0.05791   0.00000 
S          S       0.94209   0.45878   0.00000 
C          C       0.54763   0.52646   0.00000 
C          C       0.47354   0.02117   0.00000 
C          C       0.97883   0.45237   0.00000 
C          C       0.58364   0.55368   0.00000 
C          C       0.44632   0.02996   0.00000 
C          C       0.97004   0.41636   0.00000 
C          C       0.60663   0.53971   0.00000 
C          C       0.46029   0.06692   0.00000 
C          C       0.93308   0.39337   0.00000 
C          C       0.58747   0.50230   0.00000 
C          C       0.49770   0.08517   0.00000 
C          C       0.91483   0.41253   0.00000 
S          S       0.52372   0.57710   0.00000 
S          S       0.42290   0.94662   0.00000 
S          S       0.05338   0.47628   0.00000 
C          C       0.47759   0.55821   0.00000 
C          C       0.44179   0.91938   0.00000 
C          C       0.08062   0.52241   0.00000 
C          C       0.45834   0.52070   0.00000 
C          C       0.47930   0.93764   0.00000 
C          C       0.06236   0.54166   0.00000 
C          C       0.48130   0.50671   0.00000 
C          C       0.49329   0.97459   0.00000 
C          C       0.02541   0.51870   0.00000 
C          C       0.51730   0.53394   0.00000 
C          C       0.46606   0.98336   0.00000 
C          C       0.01664   0.48270   0.00000 
N          N       0.42533   0.56617   0.00000 
N          N       0.43383   0.85916   0.00000 
N          N       0.14084   0.57467   0.00000 
C          C       0.46040   0.58072   0.00000 
C          C       0.41928   0.87968   0.00000 
C          C       0.12032   0.53960   0.00000 
C          C       0.42699   0.62531   0.00000 
C          C       0.37469   0.80168   0.00000 
C          C       0.19832   0.57301   0.00000 
C          C       0.40867   0.64496   0.00000 
C          C       0.35504   0.76371   0.00000 
C          C       0.23629   0.59133   0.00000 
C          C       0.37056   0.62679   0.00000 
C          C       0.37321   0.74377   0.00000 
C          C       0.25623   0.62944   0.00000 
C          C       0.35106   0.58866   0.00000 
C          C       0.41134   0.76240   0.00000 
C          C       0.23760   0.64894   0.00000 
C          C       0.36938   0.56899   0.00000 
C          C       0.43101   0.80039   0.00000 
C          C       0.19961   0.63062   0.00000 
C          C       0.40738   0.58712   0.00000 
C          C       0.41288   0.82026   0.00000 
C          C       0.17974   0.59262   0.00000 
H          H       0.29812   0.59883   0.00000 
H          H       0.40117   0.69929   0.00000 
H          H       0.30071   0.70188   0.00000 
H          H       0.70669   0.40080   0.00000 
H          H       0.59920   0.30589   0.00000 
H          H       0.69411   0.29331   0.00000 
H          H       0.57922   0.33260   0.00000 
H          H       0.66740   0.24662   0.00000 
H          H       0.75338   0.42078   0.00000 
H          H       0.55114   0.37315   0.00000 
H          H       0.62685   0.17799   0.00000 
H          H       0.82201   0.44886   0.00000 
H          H       0.66045   0.46979   0.00000 
H          H       0.53021   0.19066   0.00000 
H          H       0.80934   0.33955   0.00000 
H          H       0.68838   0.42924   0.00000 
H          H       0.57076   0.25914   0.00000 
H          H       0.74086   0.31162   0.00000 
H          H       0.63684   0.49571   0.00000 
H          H       0.50429   0.14113   0.00000 
H          H       0.85887   0.36316   0.00000 
H          H       0.59089   0.58342   0.00000 
H          H       0.41658   0.00747   0.00000 
H          H       0.99253   0.40911   0.00000 
H          H       0.63733   0.55880   0.00000 
H          H       0.44120   0.07853   0.00000 
H          H       0.92147   0.36267   0.00000 
H          H       0.42734   0.50561   0.00000 
H          H       0.49439   0.92173   0.00000 
H          H       0.07827   0.57266   0.00000 
H          H       0.46968   0.47600   0.00000 
H          H       0.52400   0.99368   0.00000 
H          H       0.00632   0.53032   0.00000 
H          H       0.47846   0.61158   0.00000 
H          H       0.38842   0.86688   0.00000 
H          H       0.13312   0.52154   0.00000 
H          H       0.45799   0.64027   0.00000 
H          H       0.35973   0.81772   0.00000 
H          H       0.18228   0.54201   0.00000 
H          H       0.42471   0.67596   0.00000 
H          H       0.32404   0.74875   0.00000 
H          H       0.25125   0.57529   0.00000 
H          H       0.32006   0.57351   0.00000 
H          H       0.42649   0.74655   0.00000 
H          H       0.25345   0.67994   0.00000 
H          H       0.35333   0.53799   0.00000 
H          H       0.46201   0.81534   0.00000 
H          H       0.18466   0.64667   0.00000 
C          C       0.35121   0.64751   0.50000 
C          C       0.35249   0.70370   0.50000 
C          C       0.29630   0.64879   0.50000 
C          C       0.31428   0.62983   0.50000 
C          C       0.37017   0.68445   0.50000 
C          C       0.31555   0.68572   0.50000 
C          C       0.65161   0.35512   0.50000 
C          C       0.64488   0.29649   0.50000 
C          C       0.70351   0.34839   0.50000 
C          C       0.68834   0.36998   0.50000 
C          C       0.63002   0.31836   0.50000 
C          C       0.68164   0.31166   0.50000 
C          C       0.59744   0.36344   0.50000 
C          C       0.63656   0.23400   0.50000 
C          C       0.76600   0.40256   0.50000 
C          C       0.58198   0.38576   0.50000 
C          C       0.61424   0.19622   0.50000 
C          C       0.80378   0.41802   0.50000 
C          C       0.60413   0.42359   0.50000 
C          C       0.57641   0.18054   0.50000 
C          C       0.81946   0.39587   0.50000 
C          C       0.64210   0.43897   0.50000 
C          C       0.56103   0.20313   0.50000 
C          C       0.79687   0.35790   0.50000 
C          C       0.65755   0.41663   0.50000 
C          C       0.58337   0.24092   0.50000 
C          C       0.75908   0.34245   0.50000 
C          C       0.63533   0.37869   0.50000 
C          C       0.62131   0.25664   0.50000 
C          C       0.74336   0.36467   0.50000 
C          C       0.60584   0.48092   0.50000 
C          C       0.51908   0.12492   0.50000 
C          C       0.87508   0.39416   0.50000 
N          N       0.58744   0.44570   0.50000 
N          N       0.55430   0.14174   0.50000 
N          N       0.85826   0.41256   0.50000 
S          S       0.54122   0.48331   0.50000 
S          S       0.51669   0.05791   0.50000 
S          S       0.94209   0.45878   0.50000 
C          C       0.54763   0.52646   0.50000 
C          C       0.47354   0.02117   0.50000 
C          C       0.97883   0.45237   0.50000 
C          C       0.58364   0.55368   0.50000 
C          C       0.44632   0.02996   0.50000 
C          C       0.97004   0.41636   0.50000 
C          C       0.60663   0.53971   0.50000 
C          C       0.46029   0.06692   0.50000 
C          C       0.93308   0.39337   0.50000 
C          C       0.58747   0.50230   0.50000 
C          C       0.49770   0.08517   0.50000 
C          C       0.91483   0.41253   0.50000 
S          S       0.52372   0.57710   0.50000 
S          S       0.42290   0.94662   0.50000 
S          S       0.05338   0.47628   0.50000 
C          C       0.47759   0.55821   0.50000 
C          C       0.44179   0.91938   0.50000 
C          C       0.08062   0.52241   0.50000 
C          C       0.45834   0.52070   0.50000 
C          C       0.47930   0.93764   0.50000 
C          C       0.06236   0.54166   0.50000 
C          C       0.48130   0.50671   0.50000 
C          C       0.49329   0.97459   0.50000 
C          C       0.02541   0.51870   0.50000 
C          C       0.51730   0.53394   0.50000 
C          C       0.46606   0.98336   0.50000 
C          C       0.01664   0.48270   0.50000 
N          N       0.42533   0.56617   0.50000 
N          N       0.43383   0.85916   0.50000 
N          N       0.14084   0.57467   0.50000 
C          C       0.46040   0.58072   0.50000 
C          C       0.41928   0.87968   0.50000 
C          C       0.12032   0.53960   0.50000 
C          C       0.42699   0.62531   0.50000 
C          C       0.37469   0.80168   0.50000 
C          C       0.19832   0.57301   0.50000 
C          C       0.40867   0.64496   0.50000 
C          C       0.35504   0.76371   0.50000 
C          C       0.23629   0.59133   0.50000 
C          C       0.37056   0.62679   0.50000 
C          C       0.37321   0.74377   0.50000 
C          C       0.25623   0.62944   0.50000 
C          C       0.35106   0.58866   0.50000 
C          C       0.41134   0.76240   0.50000 
C          C       0.23760   0.64894   0.50000 
C          C       0.36938   0.56899   0.50000 
C          C       0.43101   0.80039   0.50000 
C          C       0.19961   0.63062   0.50000 
C          C       0.40738   0.58712   0.50000 
C          C       0.41288   0.82026   0.50000 
C          C       0.17974   0.59262   0.50000 
H          H       0.29812   0.59883   0.50000 
H          H       0.40117   0.69929   0.50000 
H          H       0.30071   0.70188   0.50000 
H          H       0.70669   0.40080   0.50000 
H          H       0.59920   0.30589   0.50000 
H          H       0.69411   0.29331   0.50000 
H          H       0.57922   0.33260   0.50000 
H          H       0.66740   0.24662   0.50000 
H          H       0.75338   0.42078   0.50000 
H          H       0.55114   0.37315   0.50000 
H          H       0.62685   0.17799   0.50000 
H          H       0.82201   0.44886   0.50000 
H          H       0.66045   0.46979   0.50000 
H          H       0.53021   0.19066   0.50000 
H          H       0.80934   0.33955   0.50000 
H          H       0.68838   0.42924   0.50000 
H          H       0.57076   0.25914   0.50000 
H          H       0.74086   0.31162   0.50000 
H          H       0.63684   0.49571   0.50000 
H          H       0.50429   0.14113   0.50000 
H          H       0.85887   0.36316   0.50000 
H          H       0.59089   0.58342   0.50000 
H          H       0.41658   0.00747   0.50000 
H          H       0.99253   0.40911   0.50000 
H          H       0.63733   0.55880   0.50000 
H          H       0.44120   0.07853   0.50000 
H          H       0.92147   0.36267   0.50000 
H          H       0.42734   0.50561   0.50000 
H          H       0.49439   0.92173   0.50000 
H          H       0.07827   0.57266   0.50000 
H          H       0.46968   0.47600   0.50000 
H          H       0.52400   0.99368   0.50000 
H          H       0.00632   0.53032   0.50000 
H          H       0.47846   0.61158   0.50000 
H          H       0.38842   0.86688   0.50000 
H          H       0.13312   0.52154   0.50000 
H          H       0.45799   0.64027   0.50000 
H          H       0.35973   0.81772   0.50000 
H          H       0.18228   0.54201   0.50000 
H          H       0.42471   0.67596   0.50000 
H          H       0.32404   0.74875   0.50000 
H          H       0.25125   0.57529   0.50000 
H          H       0.32006   0.57351   0.50000 
H          H       0.42649   0.74655   0.50000 
H          H       0.25345   0.67994   0.50000 
H          H       0.35333   0.53799   0.50000 
H          H       0.46201   0.81534   0.50000 
H          H       0.18466   0.64667   0.50000 
