data_crystal

_cell_length_a    35.92180
_cell_length_b    35.92180
_cell_length_c    7.12600
_cell_angle_alpha 90.00000
_cell_angle_beta  90.00000
_cell_angle_gamma 120.00000

_space_group_name_Hall 'P 1'
_space_group_name_H-M_alt  'P 1'

loop_
_symmetry_equiv_pos_as_xyz
'x,y,z' 

loop_
_atom_site_label
_atom_site_type_symbol
_atom_site_fract_x
_atom_site_fract_y
_atom_site_fract_z
C          C       0.28831   0.64876   0.00000 
C          C       0.35124   0.63955   0.00000 
C          C       0.36045   0.71169   0.00000 
C          C       0.31564   0.69348   0.00000 
C          C       0.30652   0.62216   0.00000 
C          C       0.37784   0.68436   0.00000 
C          C       0.43383   0.77722   0.00000 
C          C       0.22278   0.65661   0.00000 
C          C       0.34339   0.56617   0.00000 
C          C       0.46069   0.82182   0.00000 
C          C       0.17818   0.63887   0.00000 
C          C       0.36113   0.53931   0.00000 
C          C       0.44304   0.84899   0.00000 
C          C       0.15101   0.59405   0.00000 
C          C       0.40595   0.55696   0.00000 
C          C       0.39839   0.83097   0.00000 
C          C       0.16903   0.56742   0.00000 
C          C       0.43258   0.60161   0.00000 
C          C       0.37154   0.78636   0.00000 
C          C       0.21364   0.58518   0.00000 
C          C       0.41482   0.62846   0.00000 
C          C       0.38895   0.75898   0.00000 
C          C       0.24102   0.62997   0.00000 
C          C       0.37003   0.61105   0.00000 
C          C       0.51128   0.91423   0.00000 
C          C       0.08577   0.59705   0.00000 
C          C       0.40295   0.48872   0.00000 
N          N       0.46966   0.89482   0.00000 
N          N       0.10518   0.57484   0.00000 
N          N       0.42516   0.53034   0.00000 
C          C       0.71017   0.36615   0.00000 
C          C       0.63385   0.34402   0.00000 
C          C       0.65598   0.28983   0.00000 
C          C       0.69911   0.32277   0.00000 
C          C       0.67723   0.37634   0.00000 
C          C       0.62366   0.30089   0.00000 
C          C       0.60158   0.21116   0.00000 
C          C       0.78884   0.39042   0.00000 
C          C       0.60958   0.39842   0.00000 
C          C       0.59101   0.16807   0.00000 
C          C       0.83193   0.42294   0.00000 
C          C       0.57706   0.40899   0.00000 
C          C       0.62355   0.15724   0.00000 
C          C       0.84276   0.46631   0.00000 
C          C       0.53369   0.37645   0.00000 
C          C       0.66657   0.18997   0.00000 
C          C       0.81003   0.47660   0.00000 
C          C       0.52340   0.33343   0.00000 
C          C       0.67713   0.23306   0.00000 
C          C       0.76694   0.44407   0.00000 
C          C       0.55593   0.32287   0.00000 
C          C       0.64476   0.24414   0.00000 
C          C       0.75586   0.40062   0.00000 
C          C       0.59938   0.35524   0.00000 
C          C       0.57486   0.08110   0.00000 
C          C       0.91890   0.49376   0.00000 
C          C       0.50624   0.42514   0.00000 
N          N       0.61380   0.11341   0.00000 
N          N       0.88659   0.50039   0.00000 
N          N       0.49961   0.38620   0.00000 
C          C       0.42414   0.46294   0.00000 
C          C       0.53706   0.96120   0.00000 
C          C       0.03880   0.57586   0.00000 
C          C       0.40098   0.41868   0.00000 
C          C       0.58132   0.98230   0.00000 
C          C       0.01770   0.59902   0.00000 
C          C       0.42772   0.40163   0.00000 
C          C       0.59837   0.02609   0.00000 
C          C       0.97391   0.57228   0.00000 
C          C       0.47037   0.43361   0.00000 
C          C       0.56639   0.03676   0.00000 
C          C       0.96324   0.52963   0.00000 
S          S       0.47879   0.48477   0.00000 
S          S       0.51523   0.99402   0.00000 
S          S       0.00598   0.52121   0.00000 
H          H       0.30150   0.71571   0.00000 
H          H       0.28429   0.58579   0.00000 
H          H       0.41421   0.69850   0.00000 
H          H       0.44831   0.75529   0.00000 
H          H       0.24471   0.69302   0.00000 
H          H       0.30698   0.55169   0.00000 
H          H       0.49710   0.83630   0.00000 
H          H       0.16370   0.66080   0.00000 
H          H       0.33920   0.50290   0.00000 
H          H       0.38369   0.85271   0.00000 
H          H       0.14729   0.53098   0.00000 
H          H       0.46902   0.61631   0.00000 
H          H       0.33513   0.77186   0.00000 
H          H       0.22814   0.56327   0.00000 
H          H       0.43673   0.66487   0.00000 
H          H       0.52779   0.89414   0.00000 
H          H       0.10586   0.63365   0.00000 
H          H       0.36635   0.47221   0.00000 
H          H       0.72539   0.31378   0.00000 
H          H       0.68622   0.41161   0.00000 
H          H       0.58839   0.27461   0.00000 
H          H       0.57504   0.21979   0.00000 
H          H       0.78021   0.35525   0.00000 
H          H       0.64475   0.42496   0.00000 
H          H       0.55583   0.14153   0.00000 
H          H       0.85847   0.41430   0.00000 
H          H       0.58570   0.44417   0.00000 
H          H       0.69327   0.18156   0.00000 
H          H       0.81844   0.51171   0.00000 
H          H       0.48829   0.30673   0.00000 
H          H       0.71229   0.25961   0.00000 
H          H       0.74039   0.45268   0.00000 
H          H       0.54732   0.28771   0.00000 
H          H       0.54693   0.08769   0.00000 
H          H       0.91231   0.45924   0.00000 
H          H       0.54076   0.45307   0.00000 
H          H       0.36433   0.40122   0.00000 
H          H       0.59878   0.96311   0.00000 
H          H       0.03689   0.63567   0.00000 
H          H       0.41355   0.36527   0.00000 
H          H       0.63473   0.04828   0.00000 
H          H       0.95172   0.58645   0.00000 
C          C       0.28831   0.64876   0.50000 
C          C       0.35124   0.63955   0.50000 
C          C       0.36045   0.71169   0.50000 
C          C       0.31564   0.69348   0.50000 
C          C       0.30652   0.62216   0.50000 
C          C       0.37784   0.68436   0.50000 
C          C       0.43383   0.77722   0.50000 
C          C       0.22278   0.65661   0.50000 
C          C       0.34339   0.56617   0.50000 
C          C       0.46069   0.82182   0.50000 
C          C       0.17818   0.63887   0.50000 
C          C       0.36113   0.53931   0.50000 
C          C       0.44304   0.84899   0.50000 
C          C       0.15101   0.59405   0.50000 
C          C       0.40595   0.55696   0.50000 
C          C       0.39839   0.83097   0.50000 
C          C       0.16903   0.56742   0.50000 
C          C       0.43258   0.60161   0.50000 
C          C       0.37154   0.78636   0.50000 
C          C       0.21364   0.58518   0.50000 
C          C       0.41482   0.62846   0.50000 
C          C       0.38895   0.75898   0.50000 
C          C       0.24102   0.62997   0.50000 
C          C       0.37003   0.61105   0.50000 
C          C       0.51128   0.91423   0.50000 
C          C       0.08577   0.59705   0.50000 
C          C       0.40295   0.48872   0.50000 
N          N       0.46966   0.89482   0.50000 
N          N       0.10518   0.57484   0.50000 
N          N       0.42516   0.53034   0.50000 
C          C       0.71017   0.36615   0.50000 
C          C       0.63385   0.34402   0.50000 
C          C       0.65598   0.28983   0.50000 
C          C       0.69911   0.32277   0.50000 
C          C       0.67723   0.37634   0.50000 
C          C       0.62366   0.30089   0.50000 
C          C       0.60158   0.21116   0.50000 
C          C       0.78884   0.39042   0.50000 
C          C       0.60958   0.39842   0.50000 
C          C       0.59101   0.16807   0.50000 
C          C       0.83193   0.42294   0.50000 
C          C       0.57706   0.40899   0.50000 
C          C       0.62355   0.15724   0.50000 
C          C       0.84276   0.46631   0.50000 
C          C       0.53369   0.37645   0.50000 
C          C       0.66657   0.18997   0.50000 
C          C       0.81003   0.47660   0.50000 
C          C       0.52340   0.33343   0.50000 
C          C       0.67713   0.23306   0.50000 
C          C       0.76694   0.44407   0.50000 
C          C       0.55593   0.32287   0.50000 
C          C       0.64476   0.24414   0.50000 
C          C       0.75586   0.40062   0.50000 
C          C       0.59938   0.35524   0.50000 
C          C       0.57486   0.08110   0.50000 
C          C       0.91890   0.49376   0.50000 
C          C       0.50624   0.42514   0.50000 
N          N       0.61380   0.11341   0.50000 
N          N       0.88659   0.50039   0.50000 
N          N       0.49961   0.38620   0.50000 
C          C       0.42414   0.46294   0.50000 
C          C       0.53706   0.96120   0.50000 
C          C       0.03880   0.57586   0.50000 
C          C       0.40098   0.41868   0.50000 
C          C       0.58132   0.98230   0.50000 
C          C       0.01770   0.59902   0.50000 
C          C       0.42772   0.40163   0.50000 
C          C       0.59837   0.02609   0.50000 
C          C       0.97391   0.57228   0.50000 
C          C       0.47037   0.43361   0.50000 
C          C       0.56639   0.03676   0.50000 
C          C       0.96324   0.52963   0.50000 
S          S       0.47879   0.48477   0.50000 
S          S       0.51523   0.99402   0.50000 
S          S       0.00598   0.52121   0.50000 
H          H       0.30150   0.71571   0.50000 
H          H       0.28429   0.58579   0.50000 
H          H       0.41421   0.69850   0.50000 
H          H       0.44831   0.75529   0.50000 
H          H       0.24471   0.69302   0.50000 
H          H       0.30698   0.55169   0.50000 
H          H       0.49710   0.83630   0.50000 
H          H       0.16370   0.66080   0.50000 
H          H       0.33920   0.50290   0.50000 
H          H       0.38369   0.85271   0.50000 
H          H       0.14729   0.53098   0.50000 
H          H       0.46902   0.61631   0.50000 
H          H       0.33513   0.77186   0.50000 
H          H       0.22814   0.56327   0.50000 
H          H       0.43673   0.66487   0.50000 
H          H       0.52779   0.89414   0.50000 
H          H       0.10586   0.63365   0.50000 
H          H       0.36635   0.47221   0.50000 
H          H       0.72539   0.31378   0.50000 
H          H       0.68622   0.41161   0.50000 
H          H       0.58839   0.27461   0.50000 
H          H       0.57504   0.21979   0.50000 
H          H       0.78021   0.35525   0.50000 
H          H       0.64475   0.42496   0.50000 
H          H       0.55583   0.14153   0.50000 
H          H       0.85847   0.41430   0.50000 
H          H       0.58570   0.44417   0.50000 
H          H       0.69327   0.18156   0.50000 
H          H       0.81844   0.51171   0.50000 
H          H       0.48829   0.30673   0.50000 
H          H       0.71229   0.25961   0.50000 
H          H       0.74039   0.45268   0.50000 
H          H       0.54732   0.28771   0.50000 
H          H       0.54693   0.08769   0.50000 
H          H       0.91231   0.45924   0.50000 
H          H       0.54076   0.45307   0.50000 
H          H       0.36433   0.40122   0.50000 
H          H       0.59878   0.96311   0.50000 
H          H       0.03689   0.63567   0.50000 
H          H       0.41355   0.36527   0.50000 
H          H       0.63473   0.04828   0.50000 
H          H       0.95172   0.58645   0.50000 
