data_PyTTA-BFBIm-iCOF
_audit_creation_date              0000-00-00
_audit_creation_method            'LanYouShi'
_symmetry_space_group_name_H-M    'P1'
_cell_length_a                    24.4599991
_cell_length_b                    28.6100006
_cell_length_c                    7.4400001
_cell_angle_alpha                 90.0000000
_cell_angle_beta                  90.0000000
_cell_angle_gamma                 90.0000000
loop_
_atom_site_label
_atom_site_type_symbol
_atom_site_fract_x
_atom_site_fract_y
_atom_site_fract_z
_atom_site_U_iso_or_equiv
_atom_site_adp_type
_atom_site_occupancy
        C1          C  0.2199000  0.6993000  0.0580800    0.00000       Uiso       1.00
        C2          C  0.2604700  0.6869900  0.0542800    0.00000       Uiso       1.00
        C3          C  0.2910700  0.7174300  0.0438900    0.00000       Uiso       1.00
        C4          C  0.2801800  0.7593800  0.0483800    0.00000       Uiso       1.00
        C5          C  0.2383500  0.7706000  0.0602600    0.00000       Uiso       1.00
        C6          C  0.2077600  0.7399600  0.0603100    0.00000       Uiso       1.00
        C7          C  0.3330500  0.7072500  0.0310200    0.00000       Uiso       1.00
        C8          C  0.3112200  0.7901200  0.0408800    0.00000       Uiso       1.00
        C9          C  0.3529400  0.7783800  0.0317500    0.00000       Uiso       1.00
       C10          C  0.3625500  0.7362099  0.0341000    0.00000       Uiso       1.00
       C11          C  0.3837200  0.8085200  0.0196300    0.00000       Uiso       1.00
       C12          C  0.3720600  0.8491700  0.0233700    0.00000       Uiso       1.00
       C13          C  0.3317100  0.8623199  0.0328600    0.00000       Uiso       1.00
       C14          C  0.3005300  0.8322300  0.0416300    0.00000       Uiso       1.00
       C15          C  0.2583600  0.8419900  0.0545100    0.00000       Uiso       1.00
       C16          C  0.2291200  0.8128400  0.0705500    0.00000       Uiso       1.00
       H17          H  0.1977600  0.8226100  0.0913900    0.00000       Uiso       1.00
       H18          H  0.2486400  0.8736700  0.0540400    0.00000       Uiso       1.00
       H19          H  0.3423700  0.6755600  0.0195700    0.00000       Uiso       1.00
       H20          H  0.1963200  0.6757700  0.0600300    0.00000       Uiso       1.00
       H21          H  0.3942500  0.7263600  0.0370900    0.00000       Uiso       1.00
       H22          H  0.3960900  0.8721600  0.0175500    0.00000       Uiso       1.00
       C23          C  0.4275700  0.7996400  0.0042600    0.00000       Uiso       1.00
       C24          C  0.4560100  0.8250100  0.0860100    0.00000       Uiso       1.00
       C25          C  0.4428600  0.7674200  0.9058300    0.00000       Uiso       1.00
       C26          C  0.4974200  0.8177600  0.0770200    0.00000       Uiso       1.00
       H27          H  0.4456100  0.8506700  0.1631000    0.00000       Uiso       1.00
       C28          C  0.4841300  0.7590400  0.9015700    0.00000       Uiso       1.00
       H29          H  0.4225500  0.7493600  0.8251400    0.00000       Uiso       1.00
       C30          C  0.5122100  0.7835500  0.9895000    0.00000       Uiso       1.00
       H31          H  0.5180400  0.8387000  0.1425800    0.00000       Uiso       1.00
       H32          H  0.4952000  0.7334600  0.8260100    0.00000       Uiso       1.00
       C33          C  0.3265400  0.9070100  0.0291200    0.00000       Uiso       1.00
       C34          C  0.2973200  0.9288000  0.1222600    0.00000       Uiso       1.00
       C35          C  0.3545700  0.9300200  0.9325200    0.00000       Uiso       1.00
       C36          C  0.2963100  0.9709499  0.1184200    0.00000       Uiso       1.00
       H37          H  0.2757400  0.9130800  0.2057700    0.00000       Uiso       1.00
       C38          C  0.3547900  0.9720100  0.9333700    0.00000       Uiso       1.00
       H39          H  0.3765000  0.9147200  0.8495500    0.00000       Uiso       1.00
       C40          C  0.3256500  0.9935499  0.0285200    0.00000       Uiso       1.00
       H41          H  0.2733100  0.9869599  0.1932700    0.00000       Uiso       1.00
       H42          H  0.3771400  0.9878899  0.8539600    0.00000       Uiso       1.00
       C43          C  0.1633900  0.7473600  0.0619300    0.00000       Uiso       1.00
       C44          C  0.1444500  0.7790300  0.9709200    0.00000       Uiso       1.00
       C45          C  0.1380700  0.7199200  0.1500800    0.00000       Uiso       1.00
       C46          C  0.1024900  0.7836600  0.9714800    0.00000       Uiso       1.00
       H47          H  0.1624200  0.7997600  0.8915900    0.00000       Uiso       1.00
       C48          C  0.0960700  0.7229100  0.1434600    0.00000       Uiso       1.00
       H49          H  0.1513200  0.6957099  0.2285100    0.00000       Uiso       1.00
       C50          C  0.0776900  0.7548900  0.0531200    0.00000       Uiso       1.00
       H51          H  0.0885400  0.8082700  0.8980100    0.00000       Uiso       1.00
       H52          H  0.0773100  0.7010000  0.2135300    0.00000       Uiso       1.00
       C53          C  0.2692800  0.6429600  0.0607100    0.00000       Uiso       1.00
       C54          C  0.3021700  0.6270100  0.1545100    0.00000       Uiso       1.00
       C55          C  0.2438800  0.6151400  0.9758000    0.00000       Uiso       1.00
       C56          C  0.3113900  0.5859699  0.1513800    0.00000       Uiso       1.00
       H57          H  0.3206600  0.6467500  0.2358800    0.00000       Uiso       1.00
       C58          C  0.2513000  0.5736500  0.9810700    0.00000       Uiso       1.00
       H59          H  0.2180500  0.6259700  0.8997700    0.00000       Uiso       1.00
       C60          C  0.2858400  0.5586100  0.0655800    0.00000       Uiso       1.00
       H61          H  0.3374500  0.5745500  0.2239400    0.00000       Uiso       1.00
       H62          H  0.2311000  0.5528800  0.9121800    0.00000       Uiso       1.00
       N63          N  0.5532100  0.7730600  0.9773999    0.00000       Uiso       1.00
       N64          N  0.2969400  0.5176900  0.0563900    0.00000       Uiso       1.00
       C65          C  0.5809100  0.7898600  0.0692800    0.00000       Uiso       1.00
       H66          H  0.5742900  0.8134200  0.1676900    0.00000       Uiso       1.00
       C67          C  0.2746700  0.4887600  0.1120800    0.00000       Uiso       1.00
       H68          H  0.2451400  0.4944500  0.1788700    0.00000       Uiso       1.00
       C69          C  0.6237100  0.7792400  0.0499400    0.00000       Uiso       1.00
       C70          C  0.6363700  0.7453400  0.9554100    0.00000       Uiso       1.00
       C71          C  0.6535200  0.8037699  0.1264300    0.00000       Uiso       1.00
       C72          C  0.6772600  0.7353900  0.9439700    0.00000       Uiso       1.00
       H73          H  0.6136000  0.7267600  0.8896300    0.00000       Uiso       1.00
       C74          C  0.6943100  0.7937700  0.1143900    0.00000       Uiso       1.00
       H75          H  0.6445400  0.8308800  0.1978800    0.00000       Uiso       1.00
       C76          C  0.7068301  0.7587100  0.0285300    0.00000       Uiso       1.00
       H77          H  0.6865000  0.7092200  0.8671499    0.00000       Uiso       1.00
       H78          H  0.7171701  0.8128800  0.1762700    0.00000       Uiso       1.00
       C79          C  0.7507700  0.7491300  0.0257000    0.00000       Uiso       1.00
       C80          C  0.7687801  0.7124400  0.0828800    0.00000       Uiso       1.00
       C81          C  0.7779201  0.7788600  0.9698500    0.00000       Uiso       1.00
       C82          C  0.8112000  0.7048700  0.0757900    0.00000       Uiso       1.00
       N83          N  0.7527000  0.6792499  0.1675200    0.00000       Uiso       1.00
       C84          C  0.8198300  0.7721800  0.9638900    0.00000       Uiso       1.00
       H85          H  0.7662600  0.8081400  0.9250200    0.00000       Uiso       1.00
       C86          C  0.8378301  0.7356499  0.0129600    0.00000       Uiso       1.00
       N87          N  0.8183501  0.6700500  0.1727500    0.00000       Uiso       1.00
       C88          C  0.7819200  0.6531699  0.2245400    0.00000       Uiso       1.00
       C89          C  0.7106700  0.6704500  0.2004900    0.00000       Uiso       1.00
       H90          H  0.8390501  0.7968000  0.9151500    0.00000       Uiso       1.00
       C91          C  0.8827800  0.7335700  0.0021500    0.00000       Uiso       1.00
       C92          C  0.8525301  0.6410600  0.1394900    0.00000       Uiso       1.00
       H93          H  0.7815900  0.6248600  0.2977800    0.00000       Uiso       1.00
       H94          H  0.6955600  0.6583200  0.0855900    0.00000       Uiso       1.00
       H95          H  0.7082900  0.6473800  0.3010200    0.00000       Uiso       1.00
       H96          H  0.6939400  0.6974100  0.2421100    0.00000       Uiso       1.00
       C97          C  0.9033800  0.7039199  0.9079700    0.00000       Uiso       1.00
       C98          C  0.9057701  0.7641300  0.0816300    0.00000       Uiso       1.00
       H99          H  0.8567601  0.6462800  0.9992300    0.00000       Uiso       1.00
      H100          H  0.8804900  0.6528500  0.1951900    0.00000       Uiso       1.00
      H101          H  0.8450901  0.6101000  0.1656500    0.00000       Uiso       1.00
      C102          C  0.9455401  0.7027100  0.9079800    0.00000       Uiso       1.00
      H103          H  0.8863701  0.6817000  0.8327400    0.00000       Uiso       1.00
      C104          C  0.9479001  0.7637800  0.0770900    0.00000       Uiso       1.00
      H105          H  0.8902801  0.7881300  0.1523800    0.00000       Uiso       1.00
      C106          C  0.9685100  0.7322800  0.9939200    0.00000       Uiso       1.00
      H107          H  0.9610800  0.6788099  0.8361300    0.00000       Uiso       1.00
      H108          H  0.9651600  0.7876199  0.1423100    0.00000       Uiso       1.00
     Br109         Br  0.8281400  0.6327000  0.3631900    0.00000       Uiso       1.00
      C110          C  0.2868700  0.4461900  0.0957600    0.00000       Uiso       1.00
      C111          C  0.2634800  0.4155500  0.1727400    0.00000       Uiso       1.00
      C112          C  0.3212400  0.4345900  0.0014000    0.00000       Uiso       1.00
      C113          C  0.2750900  0.3752000  0.1623500    0.00000       Uiso       1.00
      H114          H  0.2361900  0.4235300  0.2456000    0.00000       Uiso       1.00
      C115          C  0.3321600  0.3940600  0.9875500    0.00000       Uiso       1.00
      H116          H  0.3390600  0.4578500  0.9347500    0.00000       Uiso       1.00
      C117          C  0.3101400  0.3636000  0.0730500    0.00000       Uiso       1.00
      H118          H  0.2569700  0.3520200  0.2277300    0.00000       Uiso       1.00
      H119          H  0.3579100  0.3858300  0.9060200    0.00000       Uiso       1.00
      C120          C  0.3209100  0.3200100  0.0672900    0.00000       Uiso       1.00
      C121          C  0.3595800  0.3028800  0.1041000    0.00000       Uiso       1.00
      C122          C  0.2905300  0.2918900  0.0273500    0.00000       Uiso       1.00
      C123          C  0.3674600  0.2606000  0.0962200    0.00000       Uiso       1.00
      N124          N  0.3958200  0.3196900  0.1589400    0.00000       Uiso       1.00
      C125          C  0.2980100  0.2502500  0.0161500    0.00000       Uiso       1.00
      H126          H  0.2598800  0.3027000  0.9965600    0.00000       Uiso       1.00
      C127          C  0.3362400  0.2331800  0.0448800    0.00000       Uiso       1.00
      N128          N  0.4086000  0.2552400  0.1286700    0.00000       Uiso       1.00
      C129          C  0.4262800  0.2917500  0.1731800    0.00000       Uiso       1.00
      C130          C  0.4040300  0.3612800  0.2014100    0.00000       Uiso       1.00
      H131          H  0.2727500  0.2306700  0.9767900    0.00000       Uiso       1.00
      C132          C  0.3408000  0.1887600  0.0241700    0.00000       Uiso       1.00
      C133          C  0.4256200  0.2170500  0.2041500    0.00000       Uiso       1.00
      H134          H  0.4581700  0.2931300  0.2130100    0.00000       Uiso       1.00
      H135          H  0.4103300  0.3797300  0.0867800    0.00000       Uiso       1.00
      H136          H  0.3784100  0.3749000  0.2697400    0.00000       Uiso       1.00
      H137          H  0.4309100  0.3630000  0.2840800    0.00000       Uiso       1.00
      C138          C  0.3118000  0.1627900  0.0980200    0.00000       Uiso       1.00
      C139          C  0.3723700  0.1713500  0.9288000    0.00000       Uiso       1.00
      H140          H  0.3968500  0.2004500  0.2323100    0.00000       Uiso       1.00
      H141          H  0.4445000  0.1999800  0.1190900    0.00000       Uiso       1.00
      H142          H  0.4373400  0.2236600  0.3309800    0.00000       Uiso       1.00
      C143          C  0.3151500  0.1210300  0.0846600    0.00000       Uiso       1.00
      H144          H  0.2867700  0.1754600  0.1725500    0.00000       Uiso       1.00
      C145          C  0.3761500  0.1295000  0.9176100    0.00000       Uiso       1.00
      H146          H  0.3944700  0.1908400  0.8631900    0.00000       Uiso       1.00
      C147          C  0.3478200  0.1035300  0.9965700    0.00000       Uiso       1.00
      H148          H  0.2925800  0.1013900  0.1462700    0.00000       Uiso       1.00
      H149          H  0.4013300  0.1166300  0.8438300    0.00000       Uiso       1.00
     Br150         Br  0.4683600  0.2511800  0.1124200    0.00000       Uiso       1.00
      C151          C  0.0128600  0.7298999  0.9943100    0.00000       Uiso       1.00
      H152          H  0.0261500  0.7012000  0.9425099    0.00000       Uiso       1.00
      C153          C  0.3520700  0.0594900  0.9868200    0.00000       Uiso       1.00
      H154          H  0.3816200  0.0481300  0.9345900    0.00000       Uiso       1.00
      N155          N  0.3232900  0.0357900  0.0366900    0.00000       Uiso       1.00
      N156          N  0.0353800  0.7589100  0.0483100    0.00000       Uiso       1.00
      C157          C  0.2206600  0.6959000  0.5657300    0.00000       Uiso       1.00
      C158          C  0.2616400  0.6850700  0.5576800    0.00000       Uiso       1.00
      C159          C  0.2913100  0.7162800  0.5444800    0.00000       Uiso       1.00
      C160          C  0.2789700  0.7577600  0.5489000    0.00000       Uiso       1.00
      C161          C  0.2368000  0.7675600  0.5624600    0.00000       Uiso       1.00
      C162          C  0.2071600  0.7360700  0.5659100    0.00000       Uiso       1.00
      C163          C  0.3336100  0.7076700  0.5278900    0.00000       Uiso       1.00
      C164          C  0.3089500  0.7894300  0.5401100    0.00000       Uiso       1.00
      C165          C  0.3511900  0.7795100  0.5302400    0.00000       Uiso       1.00
      C166          C  0.3621400  0.7376500  0.5285400    0.00000       Uiso       1.00
      C167          C  0.3806500  0.8111200  0.5217000    0.00000       Uiso       1.00
      C168          C  0.3670700  0.8512300  0.5272300    0.00000       Uiso       1.00
      C169          C  0.3262000  0.8622500  0.5391400    0.00000       Uiso       1.00
      C170          C  0.2964600  0.8309100  0.5422000    0.00000       Uiso       1.00
      C171          C  0.2539900  0.8394100  0.5504500    0.00000       Uiso       1.00
      C172          C  0.2258500  0.8093900  0.5690400    0.00000       Uiso       1.00
      H173          H  0.1941500  0.8181400  0.5883100    0.00000       Uiso       1.00
      H174          H  0.2432300  0.8707200  0.5432000    0.00000       Uiso       1.00
      H175          H  0.3439600  0.6763000  0.5154200    0.00000       Uiso       1.00
      H176          H  0.1979700  0.6715600  0.5720400    0.00000       Uiso       1.00
      H177          H  0.3941400  0.7287800  0.5261200    0.00000       Uiso       1.00
      H178          H  0.3898500  0.8754900  0.5228900    0.00000       Uiso       1.00
      C179          C  0.4252000  0.8052199  0.5151800    0.00000       Uiso       1.00
      C180          C  0.4502800  0.8327000  0.6042800    0.00000       Uiso       1.00
      C181          C  0.4445900  0.7744800  0.4214200    0.00000       Uiso       1.00
      C182          C  0.4922300  0.8294899  0.6036200    0.00000       Uiso       1.00
      H183          H  0.4366800  0.8569000  0.6809600    0.00000       Uiso       1.00
      C184          C  0.4865400  0.7700700  0.4256300    0.00000       Uiso       1.00
      H185          H  0.4270900  0.7543499  0.3379000    0.00000       Uiso       1.00
      C186          C  0.5112500  0.7971900  0.5177400    0.00000       Uiso       1.00
      H187          H  0.5099400  0.8519599  0.6748800    0.00000       Uiso       1.00
      H188          H  0.5007901  0.7455100  0.3534700    0.00000       Uiso       1.00
      C189          C  0.3174000  0.9061100  0.5497800    0.00000       Uiso       1.00
      C190          C  0.2865000  0.9225700  0.6525100    0.00000       Uiso       1.00
      C191          C  0.3425400  0.9334800  0.4605000    0.00000       Uiso       1.00
      C192          C  0.2799900  0.9641000  0.6594900    0.00000       Uiso       1.00
      H193          H  0.2681000  0.9029900  0.7351600    0.00000       Uiso       1.00
      C194          C  0.3373400  0.9750500  0.4723500    0.00000       Uiso       1.00
      H195          H  0.3664200  0.9221700  0.3757100    0.00000       Uiso       1.00
      C196          C  0.3057500  0.9911500  0.5722800    0.00000       Uiso       1.00
      H197          H  0.2559400  0.9761000  0.7414200    0.00000       Uiso       1.00
      H198          H  0.3573500  0.9948800  0.3977500    0.00000       Uiso       1.00
      C199          C  0.1627000  0.7427400  0.5674200    0.00000       Uiso       1.00
      C200          C  0.1438200  0.7741200  0.4743900    0.00000       Uiso       1.00
      C201          C  0.1373200  0.7155700  0.6565600    0.00000       Uiso       1.00
      C202          C  0.1020400  0.7796200  0.4787200    0.00000       Uiso       1.00
      H203          H  0.1616800  0.7940900  0.3913000    0.00000       Uiso       1.00
      C204          C  0.0953000  0.7192200  0.6525900    0.00000       Uiso       1.00
      H205          H  0.1505200  0.6911900  0.7343100    0.00000       Uiso       1.00
      C206          C  0.0771300  0.7517400  0.5651400    0.00000       Uiso       1.00
      H207          H  0.0882000  0.8043700  0.4057400    0.00000       Uiso       1.00
      H208          H  0.0764500  0.6974900  0.7231100    0.00000       Uiso       1.00
      C209          C  0.2712300  0.6413000  0.5616100    0.00000       Uiso       1.00
      C210          C  0.3043400  0.6252700  0.6533800    0.00000       Uiso       1.00
      C211          C  0.2454900  0.6139600  0.4758400    0.00000       Uiso       1.00
      C212          C  0.3124900  0.5839800  0.6533099    0.00000       Uiso       1.00
      H213          H  0.3235200  0.6450099  0.7319700    0.00000       Uiso       1.00
      C214          C  0.2519400  0.5724300  0.4835100    0.00000       Uiso       1.00
      H215          H  0.2200500  0.6252400  0.3987200    0.00000       Uiso       1.00
      C216          C  0.2857200  0.5570600  0.5721600    0.00000       Uiso       1.00
      H217          H  0.3382600  0.5720900  0.7264000    0.00000       Uiso       1.00
      H218          H  0.2314900  0.5518000  0.4150700    0.00000       Uiso       1.00
      N219          N  0.5531600  0.7905400  0.5145600    0.00000       Uiso       1.00
      N220          N  0.2934800  0.5153400  0.5770700    0.00000       Uiso       1.00
      C221          C  0.5782300  0.8101300  0.6100700    0.00000       Uiso       1.00
      H222          H  0.5685900  0.8339000  0.7030000    0.00000       Uiso       1.00
      C223          C  0.2666000  0.4906300  0.6336400    0.00000       Uiso       1.00
      H224          H  0.2369700  0.5012800  0.6871099    0.00000       Uiso       1.00
      C225          C  0.6218500  0.8024200  0.6010800    0.00000       Uiso       1.00
      C226          C  0.6372200  0.7691600  0.5102000    0.00000       Uiso       1.00
      C227          C  0.6495300  0.8280600  0.6853400    0.00000       Uiso       1.00
      C228          C  0.6787900  0.7631699  0.4967200    0.00000       Uiso       1.00
      H229          H  0.6160900  0.7481800  0.4475400    0.00000       Uiso       1.00
      C230          C  0.6911200  0.8220500  0.6710700    0.00000       Uiso       1.00
      H231          H  0.6382501  0.8532200  0.7633000    0.00000       Uiso       1.00
      C232          C  0.7065200  0.7903700  0.5706300    0.00000       Uiso       1.00
      H233          H  0.6901401  0.7374700  0.4225800    0.00000       Uiso       1.00
      H234          H  0.7120900  0.8422400  0.7391900    0.00000       Uiso       1.00
      C235          C  0.7507500  0.7848200  0.5457200    0.00000       Uiso       1.00
      C236          C  0.7777300  0.8151500  0.4835000    0.00000       Uiso       1.00
      C237          C  0.7686601  0.7476200  0.5849200    0.00000       Uiso       1.00
      C238          C  0.8204100  0.8096200  0.4726300    0.00000       Uiso       1.00
      N239          N  0.7707400  0.8524899  0.4080100    0.00000       Uiso       1.00
      C240          C  0.8107101  0.7416300  0.5750800    0.00000       Uiso       1.00
      H241          H  0.7496300  0.7226700  0.6321400    0.00000       Uiso       1.00
      C242          C  0.8378500  0.7719700  0.5248500    0.00000       Uiso       1.00
      N243          N  0.8355300  0.8412200  0.3725200    0.00000       Uiso       1.00
      C244          C  0.8050700  0.8688200  0.3379500    0.00000       Uiso       1.00
      C245          C  0.7332300  0.8746600  0.3970100    0.00000       Uiso       1.00
      H246          H  0.8226001  0.7120100  0.6145800    0.00000       Uiso       1.00
      C247          C  0.8818501  0.7622700  0.5284500    0.00000       Uiso       1.00
      C248          C  0.8777100  0.8582600  0.3887800    0.00000       Uiso       1.00
      H249          H  0.8118001  0.8962400  0.2641400    0.00000       Uiso       1.00
      H250          H  0.7284500  0.8930100  0.5128800    0.00000       Uiso       1.00
      H251          H  0.7342300  0.8955200  0.2877900    0.00000       Uiso       1.00
      H252          H  0.7068400  0.8547100  0.3814000    0.00000       Uiso       1.00
      C253          C  0.8957900  0.7278000  0.4420900    0.00000       Uiso       1.00
      C254          C  0.9100500  0.7850800  0.6230000    0.00000       Uiso       1.00
      H255          H  0.8836500  0.8516300  0.5267000    0.00000       Uiso       1.00
      H256          H  0.8990600  0.8386199  0.3227800    0.00000       Uiso       1.00
      H257          H  0.8796600  0.8900500  0.3630400    0.00000       Uiso       1.00
      C258          C  0.9367900  0.7179300  0.4398800    0.00000       Uiso       1.00
      H259          H  0.8742200  0.7090300  0.3710500    0.00000       Uiso       1.00
      C260          C  0.9511800  0.7760800  0.6165400    0.00000       Uiso       1.00
      H261          H  0.8997000  0.8100700  0.7035500    0.00000       Uiso       1.00
      C262          C  0.9653500  0.7427600  0.5224200    0.00000       Uiso       1.00
      H263          H  0.9468000  0.6912200  0.3681900    0.00000       Uiso       1.00
      H264          H  0.9729700  0.7947400  0.6876300    0.00000       Uiso       1.00
     Br265         Br  0.8511800  0.8743400  0.1765900    0.00000       Uiso       1.00
      C266          C  0.2731200  0.4468300  0.6324800    0.00000       Uiso       1.00
      C267          C  0.2459000  0.4208700  0.7173499    0.00000       Uiso       1.00
      C268          C  0.3064000  0.4298600  0.5466700    0.00000       Uiso       1.00
      C269          C  0.2509200  0.3791500  0.7111600    0.00000       Uiso       1.00
      H270          H  0.2207700  0.4336500  0.7915500    0.00000       Uiso       1.00
      C271          C  0.3106900  0.3881200  0.5368000    0.00000       Uiso       1.00
      H272          H  0.3283700  0.4498100  0.4830400    0.00000       Uiso       1.00
      C273          C  0.2822000  0.3620400  0.6132800    0.00000       Uiso       1.00
      H274          H  0.2302800  0.3594600  0.7836100    0.00000       Uiso       1.00
      H275          H  0.3359700  0.3754200  0.4634300    0.00000       Uiso       1.00
      C276          C  0.2857700  0.3177500  0.5909100    0.00000       Uiso       1.00
      C277          C  0.2534900  0.2916200  0.5409000    0.00000       Uiso       1.00
      C278          C  0.3232900  0.2990200  0.6174300    0.00000       Uiso       1.00
      C279          C  0.2583700  0.2491100  0.5259800    0.00000       Uiso       1.00
      N280          N  0.2138500  0.2985900  0.4896800    0.00000       Uiso       1.00
      C281          C  0.3281800  0.2570000  0.6074400    0.00000       Uiso       1.00
      H282          H  0.3494900  0.3174600  0.6561500    0.00000       Uiso       1.00
      C283          C  0.2961400  0.2307400  0.5686000    0.00000       Uiso       1.00
      N284          N  0.2206900  0.2328000  0.4836700    0.00000       Uiso       1.00
      C285          C  0.1931300  0.2635200  0.4543200    0.00000       Uiso       1.00
      C286          C  0.1930500  0.3366400  0.4700700    0.00000       Uiso       1.00
      H287          H  0.3580800  0.2444700  0.6393900    0.00000       Uiso       1.00
      C288          C  0.3035600  0.1865700  0.5729600    0.00000       Uiso       1.00
      C289          C  0.2164600  0.1942800  0.3848000    0.00000       Uiso       1.00
      H290          H  0.1623200  0.2570000  0.4091400    0.00000       Uiso       1.00
      H291          H  0.1770600  0.3452800  0.5882500    0.00000       Uiso       1.00
      H292          H  0.2139700  0.3611700  0.4358900    0.00000       Uiso       1.00
      H293          H  0.1701400  0.3342100  0.3684700    0.00000       Uiso       1.00
      C294          C  0.2777000  0.1597200  0.6605000    0.00000       Uiso       1.00
      C295          C  0.3382000  0.1709800  0.4924900    0.00000       Uiso       1.00
      H296          H  0.2477100  0.1922900  0.3294600    0.00000       Uiso       1.00
      H297          H  0.2141600  0.1680200  0.4682000    0.00000       Uiso       1.00
      H298          H  0.1942300  0.1967000  0.2850900    0.00000       Uiso       1.00
      C299          C  0.2845600  0.1182300  0.6561700    0.00000       Uiso       1.00
      H300          H  0.2519000  0.1715700  0.7333500    0.00000       Uiso       1.00
      C301          C  0.3457200  0.1296400  0.4920300    0.00000       Uiso       1.00
      H302          H  0.3589800  0.1913300  0.4246400    0.00000       Uiso       1.00
      C303          C  0.3183900  0.1025300  0.5694600    0.00000       Uiso       1.00
      H304          H  0.2639000  0.0975300  0.7232000    0.00000       Uiso       1.00
      H305          H  0.3725700  0.1180800  0.4253200    0.00000       Uiso       1.00
     Br306         Br  0.1646900  0.2109500  0.4830100    0.00000       Uiso       1.00
      C307          C  0.0088700  0.7340500  0.5104800    0.00000       Uiso       1.00
      H308          H  0.0177300  0.7057300  0.4410600    0.00000       Uiso       1.00
      C309          C  0.3262700  0.0590500  0.5604400    0.00000       Uiso       1.00
      H310          H  0.3582800  0.0503900  0.5283200    0.00000       Uiso       1.00
      N311          N  0.2982000  0.0326600  0.5868300    0.00000       Uiso       1.00
      N312          N  0.0352900  0.7584900  0.5717200    0.00000       Uiso       1.00
