data_crystal

_cell_length_a    34.26130
_cell_length_b    36.60590
_cell_length_c    7.50380
_cell_angle_alpha 90.00000
_cell_angle_beta  87.53520
_cell_angle_gamma 90.00000

_space_group_name_Hall 'P 1'
_space_group_name_H-M_alt  'P 1'

loop_
_symmetry_equiv_pos_as_xyz
'x,y,z' 

loop_
_atom_site_label
_atom_site_type_symbol
_atom_site_fract_x
_atom_site_fract_y
_atom_site_fract_z
C          C       0.03620   0.92160   0.23800 
C          C       0.03610   0.96070   0.22865 
C          C       0.07090   0.98130   0.18800 
C          C       0.92790   0.89890   0.26240 
C          C       0.92750   0.86370   0.33995 
C          C       0.89530   0.84050   0.33270 
C          C       0.86110   0.85150   0.24835 
C          C       0.86120   0.88690   0.17350 
C          C       0.89380   0.90970   0.17740 
C          C       0.17420   0.82910   0.26040 
C          C       0.78520   0.77120   0.25165 
C          C       0.74890   0.78750   0.21855 
C          C       0.71480   0.76690   0.21710 
C          C       0.67780   0.70810   0.24390 
H          H       0.70100   0.34460   0.28610 
H          H       0.40200   0.53330   0.34935 
H          H       0.54700   0.64590   0.08925 
H          H       0.60350   0.68630   0.10290 
H          H       0.66470   0.60360   0.39455 
H          H       0.60710   0.56390   0.39190 
H          H       0.74720   0.81700   0.19225 
C          C       0.64340   0.26950   0.22670 
N          N       0.61670   0.25050   0.22000 
H          H       0.68710   0.78060   0.19020 
C          C       0.53620   0.42160   0.23800 
C          C       0.53610   0.46070   0.22865 
C          C       0.57090   0.48130   0.18800 
C          C       0.42790   0.39890   0.26240 
C          C       0.42750   0.36370   0.33995 
C          C       0.39530   0.34050   0.33270 
C          C       0.36110   0.35150   0.24835 
C          C       0.36120   0.38690   0.17350 
C          C       0.39380   0.40970   0.17740 
C          C       0.67420   0.32910   0.26040 
C          C       0.28520   0.27120   0.25165 
C          C       0.24890   0.28750   0.21855 
C          C       0.21480   0.26690   0.21710 
C          C       0.17780   0.20810   0.24390 
H          H       0.20100   0.84460   0.28610 
H          H       0.90200   0.03330   0.34935 
H          H       0.04700   0.14590   0.08925 
H          H       0.10350   0.18630   0.10290 
H          H       0.16470   0.10360   0.39455 
H          H       0.10710   0.06390   0.39190 
H          H       0.24720   0.31700   0.19225 
C          C       0.14340   0.76950   0.22670 
N          N       0.11670   0.75050   0.22000 
H          H       0.18710   0.28060   0.19020 
C          C       0.96380   0.92160   0.26200 
C          C       0.96390   0.96070   0.27135 
C          C       0.92910   0.98130   0.31200 
C          C       0.07210   0.89890   0.23760 
C          C       0.07250   0.86370   0.16005 
C          C       0.10470   0.84050   0.16730 
C          C       0.13890   0.85150   0.25165 
C          C       0.13880   0.88690   0.32650 
C          C       0.10620   0.90970   0.32260 
C          C       0.82580   0.82910   0.23960 
C          C       0.21480   0.77120   0.24840 
C          C       0.25110   0.78750   0.28145 
C          C       0.28520   0.76690   0.28290 
C          C       0.32220   0.70810   0.25610 
H          H       0.29900   0.34460   0.21390 
H          H       0.59800   0.53330   0.15065 
H          H       0.45300   0.64590   0.41075 
H          H       0.39650   0.68630   0.39710 
H          H       0.33530   0.60360   0.10550 
H          H       0.39300   0.56390   0.10810 
H          H       0.25280   0.81700   0.30775 
C          C       0.35660   0.26950   0.27330 
N          N       0.38330   0.25050   0.28000 
H          H       0.31290   0.78060   0.30980 
C          C       0.46380   0.42160   0.26200 
C          C       0.46390   0.46070   0.27135 
C          C       0.42910   0.48130   0.31200 
C          C       0.57210   0.39890   0.23760 
C          C       0.57250   0.36370   0.16005 
C          C       0.60470   0.34050   0.16730 
C          C       0.63890   0.35150   0.25165 
C          C       0.63880   0.38690   0.32650 
C          C       0.60620   0.40970   0.32260 
C          C       0.32580   0.32910   0.23960 
C          C       0.71480   0.27120   0.24840 
C          C       0.75110   0.28750   0.28145 
C          C       0.78520   0.26690   0.28290 
C          C       0.82220   0.20810   0.25610 
H          H       0.79900   0.84460   0.21390 
H          H       0.09800   0.03330   0.15065 
H          H       0.95300   0.14590   0.41075 
H          H       0.89650   0.18630   0.39710 
H          H       0.83530   0.10360   0.10550 
H          H       0.89300   0.06390   0.10810 
H          H       0.75280   0.31700   0.30775 
C          C       0.85660   0.76950   0.27330 
N          N       0.88330   0.75050   0.28000 
H          H       0.81290   0.28060   0.30980 
C          C       0.96380   0.07840   0.26200 
C          C       0.96390   0.03940   0.27135 
C          C       0.92910   0.01870   0.31200 
C          C       0.07210   0.10120   0.23760 
C          C       0.07250   0.13630   0.16005 
C          C       0.10470   0.15950   0.16730 
C          C       0.13890   0.14850   0.25165 
C          C       0.13880   0.11310   0.32650 
C          C       0.10620   0.09030   0.32260 
C          C       0.82580   0.17090   0.23960 
C          C       0.21480   0.22880   0.24840 
C          C       0.25110   0.21250   0.28145 
C          C       0.28520   0.23310   0.28290 
C          C       0.32220   0.29190   0.25610 
H          H       0.29900   0.65540   0.21390 
H          H       0.59800   0.46670   0.15065 
H          H       0.45300   0.35420   0.41075 
H          H       0.39650   0.31370   0.39710 
H          H       0.33530   0.39640   0.10550 
H          H       0.39300   0.43610   0.10810 
H          H       0.25280   0.18300   0.30775 
C          C       0.35660   0.73050   0.27330 
N          N       0.38330   0.74950   0.28000 
H          H       0.31290   0.21950   0.30980 
C          C       0.46380   0.57840   0.26200 
C          C       0.46390   0.53940   0.27135 
C          C       0.42910   0.51870   0.31200 
C          C       0.57210   0.60120   0.23760 
C          C       0.57250   0.63630   0.16005 
C          C       0.60470   0.65950   0.16730 
C          C       0.63890   0.64850   0.25165 
C          C       0.63880   0.61310   0.32650 
C          C       0.60620   0.59030   0.32260 
C          C       0.32580   0.67090   0.23960 
C          C       0.71480   0.72880   0.24840 
C          C       0.75110   0.71250   0.28145 
C          C       0.78520   0.73310   0.28290 
C          C       0.82220   0.79190   0.25610 
H          H       0.79900   0.15540   0.21390 
H          H       0.09800   0.96670   0.15065 
H          H       0.95300   0.85420   0.41075 
H          H       0.89650   0.81370   0.39710 
H          H       0.83530   0.89640   0.10550 
H          H       0.89300   0.93610   0.10810 
H          H       0.75280   0.68300   0.30775 
C          C       0.85660   0.23050   0.27330 
N          N       0.88330   0.24950   0.28000 
H          H       0.81290   0.71950   0.30980 
C          C       0.03620   0.07840   0.23800 
C          C       0.03610   0.03940   0.22865 
C          C       0.07090   0.01870   0.18800 
C          C       0.92790   0.10120   0.26240 
C          C       0.92750   0.13630   0.33995 
C          C       0.89530   0.15950   0.33270 
C          C       0.86110   0.14850   0.24835 
C          C       0.86120   0.11310   0.17350 
C          C       0.89380   0.09030   0.17740 
C          C       0.17420   0.17090   0.26040 
C          C       0.78520   0.22880   0.25165 
C          C       0.74890   0.21250   0.21855 
C          C       0.71480   0.23310   0.21710 
C          C       0.67780   0.29190   0.24390 
H          H       0.70100   0.65540   0.28610 
H          H       0.40200   0.46670   0.34935 
H          H       0.54700   0.35420   0.08925 
H          H       0.60350   0.31370   0.10290 
H          H       0.66470   0.39640   0.39455 
H          H       0.60710   0.43610   0.39190 
H          H       0.74720   0.18300   0.19225 
C          C       0.64340   0.73050   0.22670 
N          N       0.61670   0.74950   0.22000 
H          H       0.68710   0.21950   0.19020 
C          C       0.53620   0.57840   0.23800 
C          C       0.53610   0.53940   0.22865 
C          C       0.57090   0.51870   0.18800 
C          C       0.42790   0.60120   0.26240 
C          C       0.42750   0.63630   0.33995 
C          C       0.39530   0.65950   0.33270 
C          C       0.36110   0.64850   0.24835 
C          C       0.36120   0.61310   0.17350 
C          C       0.39380   0.59030   0.17740 
C          C       0.67420   0.67090   0.26040 
C          C       0.28520   0.72880   0.25165 
C          C       0.24890   0.71250   0.21855 
C          C       0.21480   0.73310   0.21710 
C          C       0.17780   0.79190   0.24390 
H          H       0.20100   0.15540   0.28610 
H          H       0.90200   0.96670   0.34935 
H          H       0.04700   0.85420   0.08925 
H          H       0.10350   0.81370   0.10290 
H          H       0.16470   0.89640   0.39455 
H          H       0.10710   0.93610   0.39190 
H          H       0.24720   0.68300   0.19225 
C          C       0.14340   0.23050   0.22670 
N          N       0.11670   0.24950   0.22000 
H          H       0.18710   0.71950   0.19020 
C          C       0.50000   0.48030   0.25000 
C          C       0.50000   0.40350   0.25000 
H          H       0.50000   0.62650   0.25000 
C          C       0.00000   0.98030   0.25000 
C          C       0.00000   0.90350   0.25000 
H          H       0.00000   0.12650   0.25000 
C          C       0.50000   0.51970   0.25000 
C          C       0.50000   0.59650   0.25000 
H          H       0.50000   0.37350   0.25000 
C          C       0.00000   0.01970   0.25000 
C          C       0.00000   0.09650   0.25000 
H          H       0.00000   0.87350   0.25000 
C          C       0.03620   0.92160   0.73800 
C          C       0.03610   0.96070   0.72865 
C          C       0.07090   0.98130   0.68800 
C          C       0.92790   0.89890   0.76240 
C          C       0.92750   0.86370   0.83995 
C          C       0.89530   0.84050   0.83270 
C          C       0.86110   0.85150   0.74835 
C          C       0.86120   0.88690   0.67350 
C          C       0.89380   0.90970   0.67740 
C          C       0.17420   0.82910   0.76040 
C          C       0.78520   0.77120   0.75165 
C          C       0.74890   0.78750   0.71855 
C          C       0.71480   0.76690   0.71710 
C          C       0.67780   0.70810   0.74390 
H          H       0.70100   0.34460   0.78610 
H          H       0.40200   0.53330   0.84935 
H          H       0.54700   0.64590   0.58925 
H          H       0.60350   0.68630   0.60290 
H          H       0.66470   0.60360   0.89455 
H          H       0.60710   0.56390   0.89190 
H          H       0.74720   0.81700   0.69225 
C          C       0.64340   0.26950   0.72670 
N          N       0.61670   0.25050   0.72000 
H          H       0.68710   0.78060   0.69020 
C          C       0.53620   0.42160   0.73800 
C          C       0.53610   0.46070   0.72865 
C          C       0.57090   0.48130   0.68800 
C          C       0.42790   0.39890   0.76240 
C          C       0.42750   0.36370   0.83995 
C          C       0.39530   0.34050   0.83270 
C          C       0.36110   0.35150   0.74835 
C          C       0.36120   0.38690   0.67350 
C          C       0.39380   0.40970   0.67740 
C          C       0.67420   0.32910   0.76040 
C          C       0.28520   0.27120   0.75165 
C          C       0.24890   0.28750   0.71855 
C          C       0.21480   0.26690   0.71710 
C          C       0.17780   0.20810   0.74390 
H          H       0.20100   0.84460   0.78610 
H          H       0.90200   0.03330   0.84935 
H          H       0.04700   0.14590   0.58925 
H          H       0.10350   0.18630   0.60290 
H          H       0.16470   0.10360   0.89455 
H          H       0.10710   0.06390   0.89190 
H          H       0.24720   0.31700   0.69225 
C          C       0.14340   0.76950   0.72670 
N          N       0.11670   0.75050   0.72000 
H          H       0.18710   0.28060   0.69020 
C          C       0.96380   0.92160   0.76200 
C          C       0.96390   0.96070   0.77135 
C          C       0.92910   0.98130   0.81200 
C          C       0.07210   0.89890   0.73760 
C          C       0.07250   0.86370   0.66005 
C          C       0.10470   0.84050   0.66730 
C          C       0.13890   0.85150   0.75165 
C          C       0.13880   0.88690   0.82650 
C          C       0.10620   0.90970   0.82260 
C          C       0.82580   0.82910   0.73960 
C          C       0.21480   0.77120   0.74840 
C          C       0.25110   0.78750   0.78145 
C          C       0.28520   0.76690   0.78290 
C          C       0.32220   0.70810   0.75610 
H          H       0.29900   0.34460   0.71390 
H          H       0.59800   0.53330   0.65065 
H          H       0.45300   0.64590   0.91075 
H          H       0.39650   0.68630   0.89710 
H          H       0.33530   0.60360   0.60550 
H          H       0.39300   0.56390   0.60810 
H          H       0.25280   0.81700   0.80775 
C          C       0.35660   0.26950   0.77330 
N          N       0.38330   0.25050   0.78000 
H          H       0.31290   0.78060   0.80980 
C          C       0.46380   0.42160   0.76200 
C          C       0.46390   0.46070   0.77135 
C          C       0.42910   0.48130   0.81200 
C          C       0.57210   0.39890   0.73760 
C          C       0.57250   0.36370   0.66005 
C          C       0.60470   0.34050   0.66730 
C          C       0.63890   0.35150   0.75165 
C          C       0.63880   0.38690   0.82650 
C          C       0.60620   0.40970   0.82260 
C          C       0.32580   0.32910   0.73960 
C          C       0.71480   0.27120   0.74840 
C          C       0.75110   0.28750   0.78145 
C          C       0.78520   0.26690   0.78290 
C          C       0.82220   0.20810   0.75610 
H          H       0.79900   0.84460   0.71390 
H          H       0.09800   0.03330   0.65065 
H          H       0.95300   0.14590   0.91075 
H          H       0.89650   0.18630   0.89710 
H          H       0.83530   0.10360   0.60550 
H          H       0.89300   0.06390   0.60810 
H          H       0.75280   0.31700   0.80775 
C          C       0.85660   0.76950   0.77330 
N          N       0.88330   0.75050   0.78000 
H          H       0.81290   0.28060   0.80980 
C          C       0.96380   0.07840   0.76200 
C          C       0.96390   0.03940   0.77135 
C          C       0.92910   0.01870   0.81200 
C          C       0.07210   0.10120   0.73760 
C          C       0.07250   0.13630   0.66005 
C          C       0.10470   0.15950   0.66730 
C          C       0.13890   0.14850   0.75165 
C          C       0.13880   0.11310   0.82650 
C          C       0.10620   0.09030   0.82260 
C          C       0.82580   0.17090   0.73960 
C          C       0.21480   0.22880   0.74840 
C          C       0.25110   0.21250   0.78145 
C          C       0.28520   0.23310   0.78290 
C          C       0.32220   0.29190   0.75610 
H          H       0.29900   0.65540   0.71390 
H          H       0.59800   0.46670   0.65065 
H          H       0.45300   0.35420   0.91075 
H          H       0.39650   0.31370   0.89710 
H          H       0.33530   0.39640   0.60550 
H          H       0.39300   0.43610   0.60810 
H          H       0.25280   0.18300   0.80775 
C          C       0.35660   0.73050   0.77330 
N          N       0.38330   0.74950   0.78000 
H          H       0.31290   0.21950   0.80980 
C          C       0.46380   0.57840   0.76200 
C          C       0.46390   0.53940   0.77135 
C          C       0.42910   0.51870   0.81200 
C          C       0.57210   0.60120   0.73760 
C          C       0.57250   0.63630   0.66005 
C          C       0.60470   0.65950   0.66730 
C          C       0.63890   0.64850   0.75165 
C          C       0.63880   0.61310   0.82650 
C          C       0.60620   0.59030   0.82260 
C          C       0.32580   0.67090   0.73960 
C          C       0.71480   0.72880   0.74840 
C          C       0.75110   0.71250   0.78145 
C          C       0.78520   0.73310   0.78290 
C          C       0.82220   0.79190   0.75610 
H          H       0.79900   0.15540   0.71390 
H          H       0.09800   0.96670   0.65065 
H          H       0.95300   0.85420   0.91075 
H          H       0.89650   0.81370   0.89710 
H          H       0.83530   0.89640   0.60550 
H          H       0.89300   0.93610   0.60810 
H          H       0.75280   0.68300   0.80775 
C          C       0.85660   0.23050   0.77330 
N          N       0.88330   0.24950   0.78000 
H          H       0.81290   0.71950   0.80980 
C          C       0.03620   0.07840   0.73800 
C          C       0.03610   0.03940   0.72865 
C          C       0.07090   0.01870   0.68800 
C          C       0.92790   0.10120   0.76240 
C          C       0.92750   0.13630   0.83995 
C          C       0.89530   0.15950   0.83270 
C          C       0.86110   0.14850   0.74835 
C          C       0.86120   0.11310   0.67350 
C          C       0.89380   0.09030   0.67740 
C          C       0.17420   0.17090   0.76040 
C          C       0.78520   0.22880   0.75165 
C          C       0.74890   0.21250   0.71855 
C          C       0.71480   0.23310   0.71710 
C          C       0.67780   0.29190   0.74390 
H          H       0.70100   0.65540   0.78610 
H          H       0.40200   0.46670   0.84935 
H          H       0.54700   0.35420   0.58925 
H          H       0.60350   0.31370   0.60290 
H          H       0.66470   0.39640   0.89455 
H          H       0.60710   0.43610   0.89190 
H          H       0.74720   0.18300   0.69225 
C          C       0.64340   0.73050   0.72670 
N          N       0.61670   0.74950   0.72000 
H          H       0.68710   0.21950   0.69020 
C          C       0.53620   0.57840   0.73800 
C          C       0.53610   0.53940   0.72865 
C          C       0.57090   0.51870   0.68800 
C          C       0.42790   0.60120   0.76240 
C          C       0.42750   0.63630   0.83995 
C          C       0.39530   0.65950   0.83270 
C          C       0.36110   0.64850   0.74835 
C          C       0.36120   0.61310   0.67350 
C          C       0.39380   0.59030   0.67740 
C          C       0.67420   0.67090   0.76040 
C          C       0.28520   0.72880   0.75165 
C          C       0.24890   0.71250   0.71855 
C          C       0.21480   0.73310   0.71710 
C          C       0.17780   0.79190   0.74390 
H          H       0.20100   0.15540   0.78610 
H          H       0.90200   0.96670   0.84935 
H          H       0.04700   0.85420   0.58925 
H          H       0.10350   0.81370   0.60290 
H          H       0.16470   0.89640   0.89455 
H          H       0.10710   0.93610   0.89190 
H          H       0.24720   0.68300   0.69225 
C          C       0.14340   0.23050   0.72670 
N          N       0.11670   0.24950   0.72000 
H          H       0.18710   0.71950   0.69020 
C          C       0.50000   0.48030   0.75000 
C          C       0.50000   0.40350   0.75000 
H          H       0.50000   0.62650   0.75000 
C          C       0.00000   0.98030   0.75000 
C          C       0.00000   0.90350   0.75000 
H          H       0.00000   0.12650   0.75000 
C          C       0.50000   0.51970   0.75000 
C          C       0.50000   0.59650   0.75000 
H          H       0.50000   0.37350   0.75000 
C          C       0.00000   0.01970   0.75000 
C          C       0.00000   0.09650   0.75000 
H          H       0.00000   0.87350   0.75000 
