data_crystal

_cell_length_a    37.23600
_cell_length_b    37.29940
_cell_length_c    9.09840
_cell_angle_alpha 84.00000
_cell_angle_beta  81.00000
_cell_angle_gamma 59.00000

_space_group_name_Hall 'P 1'
_space_group_name_H-M_alt  'P 1'

loop_
_symmetry_equiv_pos_as_xyz
'x,y,z' 

loop_
_atom_site_label
_atom_site_type_symbol
_atom_site_fract_x
_atom_site_fract_y
_atom_site_fract_z
C          C       0.95020   0.06150   0.10035 
C          C       0.92920   0.04080   0.08080 
C          C       0.89570   0.04430   0.18850 
C          C       0.88420   0.06930   0.31195 
C          C       0.90530   0.08990   0.33180 
C          C       0.93820   0.08730   0.22245 
H          H       0.97530   0.05860   0.01345 
H          H       0.94110   0.01880   0.49040 
H          H       0.85900   0.07220   0.39795 
H          H       0.89330   0.11190   0.42230 
C          C       0.95650   0.11400   0.23340 
C          C       0.87430   0.02110   0.17180 
C          C       0.98210   0.11860   0.11430 
C          C       0.84600   0.01790   0.28345 
C          C       0.94160   0.13890   0.36045 
C          C       0.88570   0.99700   0.04410 
N          N       0.93070   0.15870   0.46850 
N          N       0.89110   0.97670   0.44290 
C          C       0.00350   0.14280   0.10270 
C          C       0.99590   0.17230   0.20660 
C          C       0.03350   0.13620   0.47620 
C          C       0.01790   0.19360   0.18545 
H          H       0.97260   0.17930   0.30435 
C          C       0.05570   0.15720   0.45610 
H          H       0.03950   0.11390   0.39315 
C          C       0.04820   0.18640   0.06050 
H          H       0.01140   0.21620   0.26770 
H          H       0.07850   0.15150   0.35675 
C          C       0.82210   0.99890   0.24585 
C          C       0.79780   0.01770   0.12840 
C          C       0.82360   0.96300   0.31795 
C          C       0.77820   0.99980   0.07195 
H          H       0.79510   0.04660   0.07745 
C          C       0.80450   0.94450   0.25915 
H          H       0.84560   0.94590   0.39905 
C          C       0.78150   0.96220   0.13805 
H          H       0.75770   0.01690   0.48695 
H          H       0.80970   0.91430   0.30465 
H          H       0.83130   0.03970   0.37625 
H          H       0.99530   0.09530   0.02735 
C          C       0.76460   0.94150   0.06455 
C          C       0.78120   0.89780   0.07515 
C          C       0.73340   0.96510   0.46975 
C          C       0.77070   0.87830   0.48010 
H          H       0.80470   0.87850   0.15000 
C          C       0.72020   0.94660   0.37955 
H          H       0.71890   0.99890   0.46570 
C          C       0.74140   0.90230   0.37965 
H          H       0.73340   0.88660   0.30785 
C          C       0.79150   0.83140   0.48425 
C          C       0.78320   0.81030   0.10860 
C          C       0.81980   0.80760   0.36295 
C          C       0.80250   0.76660   0.11260 
H          H       0.76060   0.82830   0.20290 
C          C       0.83970   0.76400   0.36735 
H          H       0.82670   0.82330   0.26485 
C          C       0.83180   0.74250   0.49255 
H          H       0.79440   0.75170   0.20985 
H          H       0.86200   0.74600   0.27250 
C          C       0.68340   0.97350   0.29880 
C          C       0.67330   0.95950   0.18320 
C          C       0.65410   0.01510   0.34875 
C          C       0.63450   0.98440   0.12485 
H          H       0.69450   0.92750   0.14430 
C          C       0.61610   0.03980   0.29005 
H          H       0.66170   0.02920   0.42805 
C          C       0.60340   0.02330   0.19040 
H          H       0.62570   0.97050   0.04850 
H          H       0.59560   0.07180   0.32685 
C          C       0.07100   0.20980   0.03900 
C          C       0.11470   0.18920   0.49000 
C          C       0.04870   0.25300   0.06850 
C          C       0.13640   0.21110   0.47530 
H          H       0.13230   0.15560   0.46940 
C          C       0.06940   0.27580   0.04470 
H          H       0.01470   0.26920   0.10455 
C          C       0.11330   0.25440   0.00020 
H          H       0.12970   0.27180   0.48525 
C          C       0.18340   0.18940   0.44070 
C          C       0.20570   0.19800   0.02885 
C          C       0.20650   0.16110   0.32395 
C          C       0.24950   0.17900   0.49930 
H          H       0.18850   0.21960   0.12090 
C          C       0.25050   0.14240   0.29275 
H          H       0.18980   0.15420   0.25410 
C          C       0.27280   0.15120   0.38035 
H          H       0.26630   0.18550   0.07045 
H          H       0.26730   0.12030   0.20250 
C          C       0.31900   0.13340   0.36270 
H          H       0.32750   0.14800   0.43785 
C          C       0.35040   0.11070   0.24865 
C          C       0.34260   0.09390   0.13440 
N          N       0.33570   0.08140   0.03520 
C          C       0.39500   0.09920   0.25295 
C          C       0.42850   0.07090   0.14975 
C          C       0.40550   0.11460   0.36315 
C          C       0.47050   0.05800   0.16140 
H          H       0.42180   0.05650   0.06820 
C          C       0.44740   0.10170   0.37490 
H          H       0.38120   0.13600   0.44665 
C          C       0.48090   0.07340   0.27190 
H          H       0.49530   0.03660   0.07855 
H          H       0.45400   0.11620   0.45650 
C          C       0.04570   0.32230   0.06010 
C          C       0.01760   0.34270   0.18665 
C          C       0.05260   0.34670   0.44430 
C          C       0.99680   0.38630   0.19680 
H          H       0.01290   0.32440   0.28020 
C          C       0.03150   0.39030   0.45375 
H          H       0.07530   0.33130   0.34680 
C          C       0.00240   0.41120   0.07855 
H          H       0.97470   0.40170   0.29565 
H          H       0.03810   0.40750   0.36145 
C          C       0.85530   0.69640   0.48595 
H          H       0.87910   0.68480   0.38810 
C          C       0.85970   0.66680   0.09740 
C          C       0.83420   0.67810   0.23590 
N          N       0.81430   0.68760   0.35420 
C          C       0.88860   0.62100   0.06910 
C          C       0.88840   0.59090   0.17580 
C          C       0.91540   0.60620   0.43495 
C          C       0.91360   0.54800   0.14605 
H          H       0.86630   0.60130   0.27780 
C          C       0.94050   0.56340   0.40515 
H          H       0.91640   0.62790   0.34785 
C          C       0.94050   0.53330   0.01205 
H          H       0.91290   0.52610   0.23275 
H          H       0.96260   0.55310   0.30305 
C          C       0.97040   0.48770   0.48260 
C          C       0.52490   0.06290   0.28100 
C          C       0.53020   0.08010   0.40055 
C          C       0.99540   0.47790   0.34305 
N          N       0.01510   0.46960   0.22415 
N          N       0.53630   0.09320   0.00005 
C          C       0.97660   0.45720   0.09235 
C          C       0.55850   0.04110   0.17070 
H          H       0.95300   0.46730   0.19115 
H          H       0.55390   0.02400   0.09205 
C          C       0.95020   0.06150   0.60035 
C          C       0.92920   0.04080   0.58080 
C          C       0.89570   0.04430   0.68850 
C          C       0.88420   0.06930   0.81195 
C          C       0.90530   0.08990   0.83180 
C          C       0.93820   0.08730   0.72245 
H          H       0.97530   0.05860   0.51345 
H          H       0.94110   0.01880   0.99040 
H          H       0.85900   0.07220   0.89795 
H          H       0.89330   0.11190   0.92230 
C          C       0.95650   0.11400   0.73340 
C          C       0.87430   0.02110   0.67180 
C          C       0.98210   0.11860   0.61430 
C          C       0.84600   0.01790   0.78345 
C          C       0.94160   0.13890   0.86045 
C          C       0.88570   0.99700   0.54410 
N          N       0.93070   0.15870   0.96850 
N          N       0.89110   0.97670   0.94290 
C          C       0.00350   0.14280   0.60270 
C          C       0.99590   0.17230   0.70660 
C          C       0.03350   0.13620   0.97620 
C          C       0.01790   0.19360   0.68545 
H          H       0.97260   0.17930   0.80435 
C          C       0.05570   0.15720   0.95610 
H          H       0.03950   0.11390   0.89315 
C          C       0.04820   0.18640   0.56050 
H          H       0.01140   0.21620   0.76770 
H          H       0.07850   0.15150   0.85675 
C          C       0.82210   0.99890   0.74585 
C          C       0.79780   0.01770   0.62840 
C          C       0.82360   0.96300   0.81795 
C          C       0.77820   0.99980   0.57195 
H          H       0.79510   0.04660   0.57745 
C          C       0.80450   0.94450   0.75915 
H          H       0.84560   0.94590   0.89905 
C          C       0.78150   0.96220   0.63805 
H          H       0.75770   0.01690   0.98695 
H          H       0.80970   0.91430   0.80465 
H          H       0.83130   0.03970   0.87625 
H          H       0.99530   0.09530   0.52735 
C          C       0.76460   0.94150   0.56455 
C          C       0.78120   0.89780   0.57515 
C          C       0.73340   0.96510   0.96975 
C          C       0.77070   0.87830   0.98010 
H          H       0.80470   0.87850   0.65000 
C          C       0.72020   0.94660   0.87955 
H          H       0.71890   0.99890   0.96570 
C          C       0.74140   0.90230   0.87965 
H          H       0.73340   0.88660   0.80785 
C          C       0.79150   0.83140   0.98425 
C          C       0.78320   0.81030   0.60860 
C          C       0.81980   0.80760   0.86295 
C          C       0.80250   0.76660   0.61260 
H          H       0.76060   0.82830   0.70290 
C          C       0.83970   0.76400   0.86735 
H          H       0.82670   0.82330   0.76485 
C          C       0.83180   0.74250   0.99255 
H          H       0.79440   0.75170   0.70985 
H          H       0.86200   0.74600   0.77250 
C          C       0.68340   0.97350   0.79880 
C          C       0.67330   0.95950   0.68320 
C          C       0.65410   0.01510   0.84875 
C          C       0.63450   0.98440   0.62485 
H          H       0.69450   0.92750   0.64430 
C          C       0.61610   0.03980   0.79005 
H          H       0.66170   0.02920   0.92805 
C          C       0.60340   0.02330   0.69040 
H          H       0.62570   0.97050   0.54850 
H          H       0.59560   0.07180   0.82685 
C          C       0.07100   0.20980   0.53900 
C          C       0.11470   0.18920   0.99000 
C          C       0.04870   0.25300   0.56850 
C          C       0.13640   0.21110   0.97530 
H          H       0.13230   0.15560   0.96940 
C          C       0.06940   0.27580   0.54470 
H          H       0.01470   0.26920   0.60455 
C          C       0.11330   0.25440   0.50020 
H          H       0.12970   0.27180   0.98525 
C          C       0.18340   0.18940   0.94070 
C          C       0.20570   0.19800   0.52885 
C          C       0.20650   0.16110   0.82395 
C          C       0.24950   0.17900   0.99930 
H          H       0.18850   0.21960   0.62090 
C          C       0.25050   0.14240   0.79275 
H          H       0.18980   0.15420   0.75410 
C          C       0.27280   0.15120   0.88035 
H          H       0.26630   0.18550   0.57045 
H          H       0.26730   0.12030   0.70250 
C          C       0.31900   0.13340   0.86270 
H          H       0.32750   0.14800   0.93785 
C          C       0.35040   0.11070   0.74865 
C          C       0.34260   0.09390   0.63440 
N          N       0.33570   0.08140   0.53520 
C          C       0.39500   0.09920   0.75295 
C          C       0.42850   0.07090   0.64975 
C          C       0.40550   0.11460   0.86315 
C          C       0.47050   0.05800   0.66140 
H          H       0.42180   0.05650   0.56820 
C          C       0.44740   0.10170   0.87490 
H          H       0.38120   0.13600   0.94665 
C          C       0.48090   0.07340   0.77190 
H          H       0.49530   0.03660   0.57855 
H          H       0.45400   0.11620   0.95650 
C          C       0.04570   0.32230   0.56010 
C          C       0.01760   0.34270   0.68665 
C          C       0.05260   0.34670   0.94430 
C          C       0.99680   0.38630   0.69680 
H          H       0.01290   0.32440   0.78020 
C          C       0.03150   0.39030   0.95375 
H          H       0.07530   0.33130   0.84680 
C          C       0.00240   0.41120   0.57855 
H          H       0.97470   0.40170   0.79565 
H          H       0.03810   0.40750   0.86145 
C          C       0.85530   0.69640   0.98595 
H          H       0.87910   0.68480   0.88810 
C          C       0.85970   0.66680   0.59740 
C          C       0.83420   0.67810   0.73590 
N          N       0.81430   0.68760   0.85420 
C          C       0.88860   0.62100   0.56910 
C          C       0.88840   0.59090   0.67580 
C          C       0.91540   0.60620   0.93495 
C          C       0.91360   0.54800   0.64605 
H          H       0.86630   0.60130   0.77780 
C          C       0.94050   0.56340   0.90515 
H          H       0.91640   0.62790   0.84785 
C          C       0.94050   0.53330   0.51205 
H          H       0.91290   0.52610   0.73275 
H          H       0.96260   0.55310   0.80305 
C          C       0.97040   0.48770   0.98260 
C          C       0.52490   0.06290   0.78100 
C          C       0.53020   0.08010   0.90055 
C          C       0.99540   0.47790   0.84305 
N          N       0.01510   0.46960   0.72415 
N          N       0.53630   0.09320   0.50005 
C          C       0.97660   0.45720   0.59235 
C          C       0.55850   0.04110   0.67070 
H          H       0.95300   0.46730   0.69115 
H          H       0.55390   0.02400   0.59205 
