data_crystal
 
_cell_length_a    46.15080
_cell_length_b    46.98110
_cell_length_c    8.97560
_cell_angle_alpha 82.00000
_cell_angle_beta  89.00000
_cell_angle_gamma 60.00000
 
_symmetry_space_group_name_Hall 'P 1'
_symmetry_space_group_name_H-M  'P 1'
 
loop_
_symmetry_equiv_pos_as_xyz
 'x,y,z' 
 
loop_
_atom_site_label
_atom_site_type_symbol
_atom_site_fract_x
_atom_site_fract_y
_atom_site_fract_z
C          C       0.29270   0.14220   0.04045 
C          C       0.30940   0.12700   0.42065 
C          C       0.33480   0.13110   0.35885 
C          C       0.34570   0.14950   0.42375 
C          C       0.32820   0.16580   0.03960 
C          C       0.30270   0.16200   0.09985 
C          C       0.26560   0.13800   0.10260 
C          C       0.25550   0.11830   0.04260 
C          C       0.22970   0.11490   0.10150 
C          C       0.21210   0.13120   0.21700 
C          C       0.22320   0.14930   0.28300 
C          C       0.24880   0.15320   0.22230 
H          H       0.30290   0.11130   0.37240 
H          H       0.34940   0.11600   0.27770 
H          H       0.33510   0.18090   0.09055 
H          H       0.28840   0.17720   0.18095 
H          H       0.26970   0.10310   0.46135 
H          H       0.22270   0.10000   0.04940 
H          H       0.20860   0.16440   0.36435 
H          H       0.25550   0.16870   0.27145 
C          C       0.37670   0.14880   0.38040 
C          C       0.18060   0.13250   0.25770 
C          C       0.39130   0.15980   0.46965 
C          C       0.16620   0.12160   0.16760 
C          C       0.16400   0.14980   0.37360 
C          C       0.39320   0.13200   0.26320 
N          N       0.15070   0.16290   0.47365 
N          N       0.40700   0.11920   0.16305 
H          H       0.37550   0.17520   0.04800 
H          H       0.18220   0.10620   0.09010 
C          C       0.42190   0.16080   0.45920 
C          C       0.44710   0.14540   0.36325 
C          C       0.42700   0.17720   0.06315 
C          C       0.47600   0.14670   0.37240 
H          H       0.44490   0.13140   0.28480 
C          C       0.45570   0.17840   0.07180 
H          H       0.40820   0.18860   0.14105 
C          C       0.48070   0.16330   0.47545 
H          H       0.49510   0.13480   0.29660 
H          H       0.45880   0.19130   0.15330 
C          C       0.13460   0.12250   0.16750 
C          C       0.10780   0.14030   0.25265 
C          C       0.13000   0.10690   0.05820 
C          C       0.07720   0.14410   0.21820 
H          H       0.11000   0.15350   0.33490 
C          C       0.09970   0.11040   0.02530 
H          H       0.15050   0.09330   0.49135 
C          C       0.07250   0.13000   0.10370 
H          H       0.05650   0.15780   0.28330 
H          H       0.09700   0.09740   0.44330 
C          C       0.04010   0.13410   0.06375 
C          C       0.01210   0.16350   0.02855 
C          C       0.97950   0.63580   0.44925 
C          C       0.96330   0.63460   0.32650 
C          C       0.99610   0.60770   0.05415 
C          C       0.96320   0.60630   0.30415 
H          H       0.95140   0.65600   0.24390 
C          C       0.99590   0.57960   0.03270 
H          H       0.01070   0.60740   0.14510 
C          C       0.97890   0.57850   0.41150 
H          H       0.94810   0.60700   0.21435 
H          H       0.00740   0.55850   0.11745 
C          C       0.97620   0.54910   0.41765 
C          C       0.96400   0.53850   0.31590 
H          H       0.99050   0.53100   0.01145 
C          C       0.96680   0.50570   0.34260 
C          C       0.94650   0.55770   0.18380 
C          C       0.95230   0.49660   0.24000 
C          C       0.98400   0.48300   0.46700 
N          N       0.93290   0.56990   0.06785 
C          C       0.95490   0.46610   0.26050 
H          H       0.93840   0.51360   0.14320 
C          C       0.98630   0.45260   0.48815 
H          H       0.99590   0.48860   0.04985 
C          C       0.97190   0.44360   0.38500 
H          H       0.94290   0.46010   0.17965 
H          H       0.99970   0.43550   0.08595 
C          C       0.97410   0.41100   0.41180 
C          C       0.99110   0.38730   0.32005 
C          C       0.95950   0.40350   0.03380 
C          C       0.99410   0.35660   0.35250 
H          H       0.00300   0.39240   0.22520 
C          C       0.96210   0.37310   0.06545 
H          H       0.94580   0.42170   0.10555 
C          C       0.97980   0.34890   0.47560 
H          H       0.00750   0.33890   0.27870 
H          H       0.94980   0.36820   0.15885 
C          C       0.98230   0.31650   0.01315 
C          C       0.99690   0.29220   0.42550 
C          C       0.96750   0.31210   0.14230 
H          H       0.01240   0.29470   0.34055 
C          C       0.00150   0.25920   0.46410 
N          N       0.95650   0.30900   0.25555 
C          C       0.97600   0.25400   0.01605 
C          C       0.03150   0.23210   0.43970 
C          C       0.98010   0.22300   0.03835 
H          H       0.95240   0.27460   0.03270 
C          C       0.03590   0.20100   0.46705 
H          H       0.05150   0.23550   0.39835 
C          C       0.01000   0.19570   0.01440 
H          H       0.95950   0.21990   0.07335 
H          H       0.05940   0.18080   0.44685 
C          C       0.04010   0.10320   0.05710 
C          C       0.02470   0.10000   0.43680 
C          C       0.05600   0.07630   0.16845 
C          C       0.02220   0.07250   0.43045 
H          H       0.01520   0.11940   0.34385 
C          C       0.05350   0.04870   0.16260 
H          H       0.07060   0.07690   0.25710 
C          C       0.03550   0.04670   0.04800 
H          H       0.00810   0.07230   0.33915 
H          H       0.06450   0.02870   0.25315 
C          C       0.03000   0.01890   0.06520 
C          C       0.01560   0.00950   0.46710 
H          H       0.04340   0.00100   0.16095 
C          C       0.01340   0.97930   0.00160 
C          C       0.99980   0.02870   0.33225 
C          C       0.02780   0.95720   0.13085 
C          C       0.99580   0.97250   0.40285 
N          N       0.98740   0.04190   0.21510 
C          C       0.02480   0.92950   0.16080 
H          H       0.04130   0.96150   0.21165 
C          C       0.99320   0.94470   0.43220 
H          H       0.98350   0.98960   0.30375 
C          C       0.00770   0.92260   0.06075 
H          H       0.03670   0.91250   0.26100 
H          H       0.97950   0.94010   0.35350 
C          C       0.00550   0.89230   0.08700 
C          C       0.98860   0.88660   0.20435 
C          C       0.02000   0.86900   0.49150 
C          C       0.98640   0.85850   0.22590 
H          H       0.97660   0.90460   0.27875 
C          C       0.01810   0.84060   0.01400 
H          H       0.03330   0.87280   0.39935 
C          C       0.00120   0.83480   0.13155 
H          H       0.97250   0.85520   0.31660 
H          H       0.03000   0.82320   0.43720 
C          C       0.99870   0.80460   0.15880 
C          C       0.01120   0.78180   0.06375 
C          C       0.98120   0.80270   0.28300 
H          H       0.02550   0.78580   0.47675 
C          C       0.01350   0.74990   0.07005 
N          N       0.96770   0.80380   0.39275 
C          C       0.99690   0.73810   0.16775 
C          C       0.03050   0.73210   0.45700 
C          C       0.99520   0.71100   0.14000 
H          H       0.98200   0.75250   0.25010 
C          C       0.02900   0.70490   0.43040 
H          H       0.04320   0.74120   0.38140 
C          C       0.01030   0.69470   0.02120 
H          H       0.98200   0.70200   0.21315 
H          H       0.04370   0.69050   0.34745 
C          C       0.00820   0.66610   0.48910 
C          C       0.97920   0.66640   0.46875 
C          C       0.98040   0.16440   0.49930 
C          C       0.96150   0.18070   0.36770 
C          C       0.96910   0.14830   0.10445 
C          C       0.93230   0.18100   0.33815 
H          H       0.97040   0.19240   0.28415 
C          C       0.94010   0.14880   0.07595 
H          H       0.98390   0.13430   0.20430 
C          C       0.92080   0.16540   0.44500 
H          H       0.91740   0.19540   0.23855 
H          H       0.93120   0.13710   0.16085 
C          C       0.88880   0.16720   0.44300 
C          C       0.86380   0.17920   0.33590 
H          H       0.88690   0.15240   0.03940 
C          C       0.83270   0.17930   0.37405 
C          C       0.86430   0.19590   0.19835 
C          C       0.83020   0.16350   0.00970 
C          C       0.80410   0.19780   0.28090 
N          N       0.86520   0.20870   0.08110 
C          C       0.80030   0.16770   0.05905 
H          H       0.85150   0.14850   0.08455 
C          C       0.77400   0.20230   0.33100 
H          H       0.80460   0.21220   0.17975 
C          C       0.77120   0.18760   0.46945 
H          H       0.80040   0.15300   0.16010 
H          H       0.75240   0.21750   0.25780 
C          C       0.73940   0.19200   0.02040 
C          C       0.73700   0.17720   0.15920 
C          C       0.71010   0.21140   0.43110 
C          C       0.70720   0.18100   0.20990 
H          H       0.75860   0.16230   0.23245 
C          C       0.68050   0.21480   0.48075 
H          H       0.70980   0.22610   0.32975 
C          C       0.67840   0.19890   0.11680 
H          H       0.70700   0.16640   0.31115 
H          H       0.65900   0.22930   0.40615 
C          C       0.64820   0.19750   0.15610 
C          C       0.62300   0.20840   0.05085 
C          C       0.64880   0.18030   0.29415 
H          H       0.62360   0.22390   0.45345 
C          C       0.59240   0.20720   0.05380 
N          N       0.64890   0.16700   0.41160 
C          C       0.58410   0.18940   0.16460 
C          C       0.57170   0.22250   0.42580 
C          C       0.55730   0.18540   0.13980 
H          H       0.59990   0.17650   0.26355 
C          C       0.54470   0.21890   0.40215 
H          H       0.57800   0.23620   0.33925 
C          C       0.53780   0.19930   0.00895 
H          H       0.55080   0.17170   0.22415 
H          H       0.52860   0.23160   0.30390 
C          C       0.50920   0.19490   0.48455 
C          C       0.51140   0.16520   0.48615 
C          C       0.94620   0.69560   0.46655 
C          C       0.94020   0.72730   0.42015 
C          C       0.91930   0.69190   0.01120 
C          C       0.90920   0.75410   0.42235 
H          H       0.96000   0.73150   0.38210 
C          C       0.88840   0.71870   0.01735 
H          H       0.92270   0.66770   0.04425 
C          C       0.88280   0.75030   0.47235 
H          H       0.90570   0.77820   0.38905 
H          H       0.86830   0.71510   0.05630 
C          C       0.85030   0.77870   0.48525 
C          C       0.83400   0.80460   0.37390 
H          H       0.83590   0.77510   0.07315 
C          C       0.80300   0.83390   0.39990 
C          C       0.84990   0.80520   0.24300 
C          C       0.78620   0.83430   0.02795 
C          C       0.79190   0.86330   0.30340 
N          N       0.86430   0.80310   0.13500 
C          C       0.76080   0.86300   0.06835 
H          H       0.79360   0.81190   0.10280 
C          C       0.76700   0.89230   0.34575 
H          H       0.80650   0.86440   0.21150 
C          C       0.75070   0.89290   0.47640 
H          H       0.74670   0.86140   0.16115 
H          H       0.76070   0.91470   0.27395 
C          C       0.72450   0.92380   0.01780 
C          C       0.70790   0.92500   0.14770 
C          C       0.71530   0.95360   0.42625 
C          C       0.68350   0.95430   0.19010 
H          H       0.71350   0.90270   0.21890 
C          C       0.69080   0.98270   0.46715 
H          H       0.72970   0.95480   0.33405 
C          C       0.67360   0.98370   0.09470 
H          H       0.66870   0.95390   0.28175 
H          H       0.68460   0.00480   0.39305 
C          C       0.64390   0.01430   0.12085 
C          C       0.62990   0.04050   0.00915 
C          C       0.62720   0.01550   0.25070 
H          H       0.64570   0.04160   0.42265 
C          C       0.60010   0.07190   0.01665 
N          N       0.61200   0.01940   0.35695 
C          C       0.57070   0.07480   0.06965 
C          C       0.60040   0.10040   0.45865 
C          C       0.54250   0.10500   0.06085 
H          H       0.56950   0.05310   0.11335 
C          C       0.57260   0.13060   0.45430 
H          H       0.62290   0.09880   0.41660 
C          C       0.54260   0.13370   0.00175 
H          H       0.52000   0.10650   0.10035 
H          H       0.57440   0.15180   0.41055 
C          C       0.04050   0.63670   0.48020 
C          C       0.06650   0.62960   0.07895 
C          C       0.04690   0.61660   0.37185 
C          C       0.09710   0.60220   0.07485 
H          H       0.06300   0.64610   0.15685 
C          C       0.07750   0.58920   0.36790 
H          H       0.02830   0.62300   0.28610 
C          C       0.10290   0.58060   0.47370 
H          H       0.11620   0.59790   0.15345 
H          H       0.08150   0.57330   0.28570 
C          C       0.13310   0.54940   0.47135 
C          C       0.15890   0.53240   0.07605 
H          H       0.13100   0.53550   0.39180 
C          C       0.18730   0.50080   0.05060 
C          C       0.16180   0.54690   0.19435 
C          C       0.18620   0.48460   0.43635 
C          C       0.21730   0.48790   0.13245 
N          N       0.16230   0.56020   0.29225 
C          C       0.21410   0.45840   0.39315 
H          H       0.16330   0.49310   0.37385 
C          C       0.24550   0.46180   0.08750 
H          H       0.21960   0.50160   0.21210 
C          C       0.24480   0.44640   0.46935 
H          H       0.21130   0.44510   0.31290 
H          H       0.26850   0.45410   0.14655 
C          C       0.27480   0.41880   0.42485 
C          C       0.27430   0.40320   0.30705 
C          C       0.30530   0.40720   0.00100 
C          C       0.30270   0.37730   0.26230 
H          H       0.25130   0.41080   0.24800 
C          C       0.33350   0.38110   0.45795 
H          H       0.30800   0.42050   0.08110 
C          C       0.33270   0.36470   0.34400 
H          H       0.30060   0.36350   0.18265 
H          H       0.35620   0.37300   0.02050 
C          C       0.36140   0.33320   0.31965 
C          C       0.38720   0.31700   0.42490 
C          C       0.35920   0.31810   0.20255 
H          H       0.38860   0.33150   0.00330 
C          C       0.41740   0.28570   0.43015 
N          N       0.35910   0.30470   0.10465 
C          C       0.42450   0.26270   0.33460 
C          C       0.44130   0.27820   0.04205 
C          C       0.45390   0.23350   0.35150 
H          H       0.40710   0.26710   0.24680 
C          C       0.47080   0.24920   0.05755 
H          H       0.43650   0.29570   0.11690 
C          C       0.47750   0.22600   0.46380 
H          H       0.45890   0.21630   0.27560 
H          H       0.48870   0.24410   0.14450 
C          C       0.29270   0.14220   0.54045 
C          C       0.30940   0.12700   0.92065 
C          C       0.33480   0.13110   0.85885 
C          C       0.34570   0.14950   0.92375 
C          C       0.32820   0.16580   0.53960 
C          C       0.30270   0.16200   0.59985 
C          C       0.26560   0.13800   0.60260 
C          C       0.25550   0.11830   0.54260 
C          C       0.22970   0.11490   0.60150 
C          C       0.21210   0.13120   0.71700 
C          C       0.22320   0.14930   0.78300 
C          C       0.24880   0.15320   0.72230 
H          H       0.30290   0.11130   0.87240 
H          H       0.34940   0.11600   0.77770 
H          H       0.33510   0.18090   0.59055 
H          H       0.28840   0.17720   0.68095 
H          H       0.26970   0.10310   0.96135 
H          H       0.22270   0.10000   0.54940 
H          H       0.20860   0.16440   0.86435 
H          H       0.25550   0.16870   0.77145 
C          C       0.37670   0.14880   0.88040 
C          C       0.18060   0.13250   0.75770 
C          C       0.39130   0.15980   0.96965 
C          C       0.16620   0.12160   0.66760 
C          C       0.16400   0.14980   0.87360 
C          C       0.39320   0.13200   0.76320 
N          N       0.15070   0.16290   0.97365 
N          N       0.40700   0.11920   0.66305 
H          H       0.37550   0.17520   0.54800 
H          H       0.18220   0.10620   0.59010 
C          C       0.42190   0.16080   0.95920 
C          C       0.44710   0.14540   0.86325 
C          C       0.42700   0.17720   0.56315 
C          C       0.47600   0.14670   0.87240 
H          H       0.44490   0.13140   0.78480 
C          C       0.45570   0.17840   0.57180 
H          H       0.40820   0.18860   0.64105 
C          C       0.48070   0.16330   0.97545 
H          H       0.49510   0.13480   0.79660 
H          H       0.45880   0.19130   0.65330 
C          C       0.13460   0.12250   0.66750 
C          C       0.10780   0.14030   0.75265 
C          C       0.13000   0.10690   0.55820 
C          C       0.07720   0.14410   0.71820 
H          H       0.11000   0.15350   0.83490 
C          C       0.09970   0.11040   0.52530 
H          H       0.15050   0.09330   0.99135 
C          C       0.07250   0.13000   0.60370 
H          H       0.05650   0.15780   0.78330 
H          H       0.09700   0.09740   0.94330 
C          C       0.04010   0.13410   0.56375 
C          C       0.01210   0.16350   0.52855 
C          C       0.97950   0.63580   0.94925 
C          C       0.96330   0.63460   0.82650 
C          C       0.99610   0.60770   0.55415 
C          C       0.96320   0.60630   0.80415 
H          H       0.95140   0.65600   0.74390 
C          C       0.99590   0.57960   0.53270 
H          H       0.01070   0.60740   0.64510 
C          C       0.97890   0.57850   0.91150 
H          H       0.94810   0.60700   0.71435 
H          H       0.00740   0.55850   0.61745 
C          C       0.97620   0.54910   0.91765 
C          C       0.96400   0.53850   0.81590 
H          H       0.99050   0.53100   0.51145 
C          C       0.96680   0.50570   0.84260 
C          C       0.94650   0.55770   0.68380 
C          C       0.95230   0.49660   0.74000 
C          C       0.98400   0.48300   0.96700 
N          N       0.93290   0.56990   0.56785 
C          C       0.95490   0.46610   0.76050 
H          H       0.93840   0.51360   0.64320 
C          C       0.98630   0.45260   0.98815 
H          H       0.99590   0.48860   0.54985 
C          C       0.97190   0.44360   0.88500 
H          H       0.94290   0.46010   0.67965 
H          H       0.99970   0.43550   0.58595 
C          C       0.97410   0.41100   0.91180 
C          C       0.99110   0.38730   0.82005 
C          C       0.95950   0.40350   0.53380 
C          C       0.99410   0.35660   0.85250 
H          H       0.00300   0.39240   0.72520 
C          C       0.96210   0.37310   0.56545 
H          H       0.94580   0.42170   0.60555 
C          C       0.97980   0.34890   0.97560 
H          H       0.00750   0.33890   0.77870 
H          H       0.94980   0.36820   0.65885 
C          C       0.98230   0.31650   0.51315 
C          C       0.99690   0.29220   0.92550 
C          C       0.96750   0.31210   0.64230 
H          H       0.01240   0.29470   0.84055 
C          C       0.00150   0.25920   0.96410 
N          N       0.95650   0.30900   0.75555 
C          C       0.97600   0.25400   0.51605 
C          C       0.03150   0.23210   0.93970 
C          C       0.98010   0.22300   0.53835 
H          H       0.95240   0.27460   0.53270 
C          C       0.03590   0.20100   0.96705 
H          H       0.05150   0.23550   0.89835 
C          C       0.01000   0.19570   0.51440 
H          H       0.95950   0.21990   0.57335 
H          H       0.05940   0.18080   0.94685 
C          C       0.04010   0.10320   0.55710 
C          C       0.02470   0.10000   0.93680 
C          C       0.05600   0.07630   0.66845 
C          C       0.02220   0.07250   0.93045 
H          H       0.01520   0.11940   0.84385 
C          C       0.05350   0.04870   0.66260 
H          H       0.07060   0.07690   0.75710 
C          C       0.03550   0.04670   0.54800 
H          H       0.00810   0.07230   0.83915 
H          H       0.06450   0.02870   0.75315 
C          C       0.03000   0.01890   0.56520 
C          C       0.01560   0.00950   0.96710 
H          H       0.04340   0.00100   0.66095 
C          C       0.01340   0.97930   0.50160 
C          C       0.99980   0.02870   0.83225 
C          C       0.02780   0.95720   0.63085 
C          C       0.99580   0.97250   0.90285 
N          N       0.98740   0.04190   0.71510 
C          C       0.02480   0.92950   0.66080 
H          H       0.04130   0.96150   0.71165 
C          C       0.99320   0.94470   0.93220 
H          H       0.98350   0.98960   0.80375 
C          C       0.00770   0.92260   0.56075 
H          H       0.03670   0.91250   0.76100 
H          H       0.97950   0.94010   0.85350 
C          C       0.00550   0.89230   0.58700 
C          C       0.98860   0.88660   0.70435 
C          C       0.02000   0.86900   0.99150 
C          C       0.98640   0.85850   0.72590 
H          H       0.97660   0.90460   0.77875 
C          C       0.01810   0.84060   0.51400 
H          H       0.03330   0.87280   0.89935 
C          C       0.00120   0.83480   0.63155 
H          H       0.97250   0.85520   0.81660 
H          H       0.03000   0.82320   0.93720 
C          C       0.99870   0.80460   0.65880 
C          C       0.01120   0.78180   0.56375 
C          C       0.98120   0.80270   0.78300 
H          H       0.02550   0.78580   0.97675 
C          C       0.01350   0.74990   0.57005 
N          N       0.96770   0.80380   0.89275 
C          C       0.99690   0.73810   0.66775 
C          C       0.03050   0.73210   0.95700 
C          C       0.99520   0.71100   0.64000 
H          H       0.98200   0.75250   0.75010 
C          C       0.02900   0.70490   0.93040 
H          H       0.04320   0.74120   0.88140 
C          C       0.01030   0.69470   0.52120 
H          H       0.98200   0.70200   0.71315 
H          H       0.04370   0.69050   0.84745 
C          C       0.00820   0.66610   0.98910 
C          C       0.97920   0.66640   0.96875 
C          C       0.98040   0.16440   0.99930 
C          C       0.96150   0.18070   0.86770 
C          C       0.96910   0.14830   0.60445 
C          C       0.93230   0.18100   0.83815 
H          H       0.97040   0.19240   0.78415 
C          C       0.94010   0.14880   0.57595 
H          H       0.98390   0.13430   0.70430 
C          C       0.92080   0.16540   0.94500 
H          H       0.91740   0.19540   0.73855 
H          H       0.93120   0.13710   0.66085 
C          C       0.88880   0.16720   0.94300 
C          C       0.86380   0.17920   0.83590 
H          H       0.88690   0.15240   0.53940 
C          C       0.83270   0.17930   0.87405 
C          C       0.86430   0.19590   0.69835 
C          C       0.83020   0.16350   0.50970 
C          C       0.80410   0.19780   0.78090 
N          N       0.86520   0.20870   0.58110 
C          C       0.80030   0.16770   0.55905 
H          H       0.85150   0.14850   0.58455 
C          C       0.77400   0.20230   0.83100 
H          H       0.80460   0.21220   0.67975 
C          C       0.77120   0.18760   0.96945 
H          H       0.80040   0.15300   0.66010 
H          H       0.75240   0.21750   0.75780 
C          C       0.73940   0.19200   0.52040 
C          C       0.73700   0.17720   0.65920 
C          C       0.71010   0.21140   0.93110 
C          C       0.70720   0.18100   0.70990 
H          H       0.75860   0.16230   0.73245 
C          C       0.68050   0.21480   0.98075 
H          H       0.70980   0.22610   0.82975 
C          C       0.67840   0.19890   0.61680 
H          H       0.70700   0.16640   0.81115 
H          H       0.65900   0.22930   0.90615 
C          C       0.64820   0.19750   0.65610 
C          C       0.62300   0.20840   0.55085 
C          C       0.64880   0.18030   0.79415 
H          H       0.62360   0.22390   0.95345 
C          C       0.59240   0.20720   0.55380 
N          N       0.64890   0.16700   0.91160 
C          C       0.58410   0.18940   0.66460 
C          C       0.57170   0.22250   0.92580 
C          C       0.55730   0.18540   0.63980 
H          H       0.59990   0.17650   0.76355 
C          C       0.54470   0.21890   0.90215 
H          H       0.57800   0.23620   0.83925 
C          C       0.53780   0.19930   0.50895 
H          H       0.55080   0.17170   0.72415 
H          H       0.52860   0.23160   0.80390 
C          C       0.50920   0.19490   0.98455 
C          C       0.51140   0.16520   0.98615 
C          C       0.94620   0.69560   0.96655 
C          C       0.94020   0.72730   0.92015 
C          C       0.91930   0.69190   0.51120 
C          C       0.90920   0.75410   0.92235 
H          H       0.96000   0.73150   0.88210 
C          C       0.88840   0.71870   0.51735 
H          H       0.92270   0.66770   0.54425 
C          C       0.88280   0.75030   0.97235 
H          H       0.90570   0.77820   0.88905 
H          H       0.86830   0.71510   0.55630 
C          C       0.85030   0.77870   0.98525 
C          C       0.83400   0.80460   0.87390 
H          H       0.83590   0.77510   0.57315 
C          C       0.80300   0.83390   0.89990 
C          C       0.84990   0.80520   0.74300 
C          C       0.78620   0.83430   0.52795 
C          C       0.79190   0.86330   0.80340 
N          N       0.86430   0.80310   0.63500 
C          C       0.76080   0.86300   0.56835 
H          H       0.79360   0.81190   0.60280 
C          C       0.76700   0.89230   0.84575 
H          H       0.80650   0.86440   0.71150 
C          C       0.75070   0.89290   0.97640 
H          H       0.74670   0.86140   0.66115 
H          H       0.76070   0.91470   0.77395 
C          C       0.72450   0.92380   0.51780 
C          C       0.70790   0.92500   0.64770 
C          C       0.71530   0.95360   0.92625 
C          C       0.68350   0.95430   0.69010 
H          H       0.71350   0.90270   0.71890 
C          C       0.69080   0.98270   0.96715 
H          H       0.72970   0.95480   0.83405 
C          C       0.67360   0.98370   0.59470 
H          H       0.66870   0.95390   0.78175 
H          H       0.68460   0.00480   0.89305 
C          C       0.64390   0.01430   0.62085 
C          C       0.62990   0.04050   0.50915 
C          C       0.62720   0.01550   0.75070 
H          H       0.64570   0.04160   0.92265 
C          C       0.60010   0.07190   0.51665 
N          N       0.61200   0.01940   0.85695 
C          C       0.57070   0.07480   0.56965 
C          C       0.60040   0.10040   0.95865 
C          C       0.54250   0.10500   0.56085 
H          H       0.56950   0.05310   0.61335 
C          C       0.57260   0.13060   0.95430 
H          H       0.62290   0.09880   0.91660 
C          C       0.54260   0.13370   0.50175 
H          H       0.52000   0.10650   0.60035 
H          H       0.57440   0.15180   0.91055 
C          C       0.04050   0.63670   0.98020 
C          C       0.06650   0.62960   0.57895 
C          C       0.04690   0.61660   0.87185 
C          C       0.09710   0.60220   0.57485 
H          H       0.06300   0.64610   0.65685 
C          C       0.07750   0.58920   0.86790 
H          H       0.02830   0.62300   0.78610 
C          C       0.10290   0.58060   0.97370 
H          H       0.11620   0.59790   0.65345 
H          H       0.08150   0.57330   0.78570 
C          C       0.13310   0.54940   0.97135 
C          C       0.15890   0.53240   0.57605 
H          H       0.13100   0.53550   0.89180 
C          C       0.18730   0.50080   0.55060 
C          C       0.16180   0.54690   0.69435 
C          C       0.18620   0.48460   0.93635 
C          C       0.21730   0.48790   0.63245 
N          N       0.16230   0.56020   0.79225 
C          C       0.21410   0.45840   0.89315 
H          H       0.16330   0.49310   0.87385 
C          C       0.24550   0.46180   0.58750 
H          H       0.21960   0.50160   0.71210 
C          C       0.24480   0.44640   0.96935 
H          H       0.21130   0.44510   0.81290 
H          H       0.26850   0.45410   0.64655 
C          C       0.27480   0.41880   0.92485 
C          C       0.27430   0.40320   0.80705 
C          C       0.30530   0.40720   0.50100 
C          C       0.30270   0.37730   0.76230 
H          H       0.25130   0.41080   0.74800 
C          C       0.33350   0.38110   0.95795 
H          H       0.30800   0.42050   0.58110 
C          C       0.33270   0.36470   0.84400 
H          H       0.30060   0.36350   0.68265 
H          H       0.35620   0.37300   0.52050 
C          C       0.36140   0.33320   0.81965 
C          C       0.38720   0.31700   0.92490 
C          C       0.35920   0.31810   0.70255 
H          H       0.38860   0.33150   0.50330 
C          C       0.41740   0.28570   0.93015 
N          N       0.35910   0.30470   0.60465 
C          C       0.42450   0.26270   0.83460 
C          C       0.44130   0.27820   0.54205 
C          C       0.45390   0.23350   0.85150 
H          H       0.40710   0.26710   0.74680 
C          C       0.47080   0.24920   0.55755 
H          H       0.43650   0.29570   0.61690 
C          C       0.47750   0.22600   0.96380 
H          H       0.45890   0.21630   0.77560 
H          H       0.48870   0.24410   0.64450 
