data_crystal
 
_cell_length_a    46.07330
_cell_length_b    47.04500
_cell_length_c    8.76300
_cell_angle_alpha 83.85380
_cell_angle_beta  85.67930
_cell_angle_gamma 58.43780
 
_space_group_name_Hall 'P 1'
_space_group_name_H-M_alt  'P 1'
 
loop_
_symmetry_equiv_pos_as_xyz
 'x,y,z' 
 
loop_
_atom_site_label
_atom_site_type_symbol
_atom_site_fract_x
_atom_site_fract_y
_atom_site_fract_z
C          C       0.27020   0.16310   0.39480 
C          C       0.28690   0.14590   0.26535 
C          C       0.31340   0.14840   0.18630 
C          C       0.32630   0.16550   0.25305 
C          C       0.30860   0.18440   0.37680 
C          C       0.28160   0.18270   0.45155 
C          C       0.24190   0.16060   0.47240 
C          C       0.23090   0.14060   0.41620 
C          C       0.20440   0.13830   0.49245 
C          C       0.18660   0.15700   0.11650 
C          C       0.19900   0.17480   0.18180 
C          C       0.22510   0.17780   0.10180 
H          H       0.27990   0.12950   0.22295 
H          H       0.32890   0.13070   0.10185 
H          H       0.31730   0.19920   0.42265 
H          H       0.26640   0.20050   0.03600 
H          H       0.24620   0.12290   0.33190 
H          H       0.19640   0.12280   0.44795 
H          H       0.18330   0.19230   0.26630 
H          H       0.23180   0.19450   0.14350 
C          C       0.37700   0.16020   0.30820 
C          C       0.13710   0.15940   0.06570 
H          H       0.36950   0.16100   0.43875 
H          H       0.14420   0.15920   0.43495 
C          C       0.41050   0.15630   0.26750 
C          C       0.42880   0.13840   0.14235 
C          C       0.42430   0.17070   0.34845 
C          C       0.45930   0.13610   0.08885 
H          H       0.41820   0.12710   0.08090 
C          C       0.45450   0.16880   0.29280 
H          H       0.40940   0.18680   0.43915 
C          C       0.47230   0.15180   0.16525 
H          H       0.47460   0.11930   0.00110 
H          H       0.46620   0.17840   0.35765 
C          C       0.10520   0.16000   0.10915 
C          C       0.08620   0.17660   0.23610 
C          C       0.09440   0.14260   0.03150 
C          C       0.05760   0.17530   0.29175 
H          H       0.09470   0.18970   0.29730 
C          C       0.06660   0.14030   0.09130 
H          H       0.11040   0.12690   0.44120 
C          C       0.04700   0.15720   0.21685 
H          H       0.04180   0.19120   0.38080 
H          H       0.05830   0.12710   0.03035 
C          C       0.01500   0.15640   0.25280 
C          C       0.98330   0.18470   0.24650 
C          C       0.99780   0.63260   0.11675 
C          C       0.96530   0.63660   0.10515 
C          C       0.02570   0.59960   0.13850 
C          C       0.96130   0.60930   0.11005 
H          H       0.94290   0.66160   0.09175 
C          C       0.02170   0.57230   0.14490 
H          H       0.05100   0.59490   0.15160 
C          C       0.98950   0.57650   0.12940 
H          H       0.93610   0.61310   0.09910 
H          H       0.04380   0.54710   0.16265 
C          C       0.98660   0.54680   0.13500 
H          H       0.01070   0.52250   0.15935 
C          C       0.95890   0.51750   0.12405 
C          C       0.94080   0.51230   0.02015 
C          C       0.97650   0.49240   0.24135 
C          C       0.94180   0.48200   0.02795 
H          H       0.92730   0.53140   0.42790 
C          C       0.97640   0.46270   0.25145 
H          H       0.98990   0.49630   0.32590 
C          C       0.95940   0.45680   0.14485 
H          H       0.92790   0.47820   0.44530 
H          H       0.98980   0.44380   0.34430 
C          C       0.95980   0.42460   0.15925 
C          C       0.97770   0.40060   0.05285 
C          C       0.94330   0.41710   0.28345 
C          C       0.97890   0.37020   0.06850 
H          H       0.99140   0.40540   0.45710 
C          C       0.94430   0.38680   0.30000 
H          H       0.92950   0.43520   0.36860 
C          C       0.96190   0.36310   0.19195 
H          H       0.99350   0.35180   0.48580 
H          H       0.93130   0.38150   0.39735 
C          C       0.96580   0.31600   0.09705 
H          H       0.96560   0.32460   0.46570 
C          C       0.96870   0.28310   0.12705 
C          C       0.95320   0.27720   0.25950 
C          C       0.98770   0.25690   0.03120 
C          C       0.95770   0.24570   0.30220 
H          H       0.93810   0.29750   0.33340 
C          C       0.99290   0.22520   0.07655 
H          H       0.00070   0.26050   0.42890 
C          C       0.97860   0.21880   0.21155 
H          H       0.94370   0.24270   0.40110 
H          H       0.00650   0.20530   0.00050 
C          C       0.01920   0.12230   0.25705 
C          C       0.00430   0.11610   0.14230 
C          C       0.03900   0.09570   0.36490 
C          C       0.00770   0.08510   0.13440 
H          H       0.99150   0.13580   0.05200 
C          C       0.04160   0.06480   0.36050 
H          H       0.05320   0.09830   0.44955 
C          C       0.02570   0.05910   0.24810 
H          H       0.99450   0.08160   0.04715 
H          H       0.05580   0.04490   0.44880 
C          C       0.02700   0.02700   0.25695 
H          H       0.02800   0.01690   0.38575 
C          C       0.02800   0.98250   0.15535 
C          C       0.04630   0.95820   0.27415 
C          C       0.01160   0.97520   0.05145 
C          C       0.04730   0.92790   0.29025 
H          H       0.06010   0.96280   0.35365 
C          C       0.01280   0.94470   0.06785 
H          H       0.99740   0.99360   0.45780 
C          C       0.03050   0.92080   0.18805 
H          H       0.06170   0.90940   0.38315 
H          H       0.99970   0.93970   0.48625 
C          C       0.03160   0.88810   0.20595 
C          C       0.01490   0.88070   0.32965 
C          C       0.04940   0.86420   0.09925 
C          C       0.01550   0.85060   0.34485 
H          H       0.00100   0.89880   0.41460 
C          C       0.05030   0.83400   0.11420 
H          H       0.06300   0.86920   0.00335 
C          C       0.03300   0.82690   0.23665 
H          H       0.00210   0.84560   0.44135 
H          H       0.06490   0.81560   0.03115 
C          C       0.03510   0.78210   0.13260 
H          H       0.03540   0.79210   0.00465 
C          C       0.03620   0.75020   0.13480 
C          C       0.01910   0.74000   0.24675 
C          C       0.05300   0.73030   0.01300 
C          C       0.01710   0.71200   0.22675 
H          H       0.00440   0.75600   0.33800 
C          C       0.05150   0.70200   0.49475 
H          H       0.06600   0.73810   0.42575 
C          C       0.03240   0.69300   0.10100 
H          H       0.00520   0.70360   0.31660 
H          H       0.06660   0.68580   0.40485 
C          C       0.03040   0.66310   0.08055 
C          C       0.00100   0.66250   0.11460 
C          C       0.95140   0.18370   0.23895 
C          C       0.93110   0.20040   0.11090 
C          C       0.94140   0.16560   0.34565 
C          C       0.90320   0.19800   0.08050 
H          H       0.93890   0.21390   0.02620 
C          C       0.91260   0.16420   0.31915 
H          H       0.95730   0.15040   0.44105 
C          C       0.89310   0.18030   0.18905 
H          H       0.88680   0.21320   0.48540 
H          H       0.90430   0.15150   0.40615 
C          C       0.86100   0.18060   0.17990 
H          H       0.85130   0.17900   0.30365 
C          C       0.81660   0.18380   0.03890 
C          C       0.80750   0.16360   0.13700 
C          C       0.79650   0.20200   0.41165 
C          C       0.78320   0.15730   0.08645 
H          H       0.82450   0.14700   0.22820 
C          C       0.77200   0.19620   0.36380 
H          H       0.80190   0.21920   0.34110 
C          C       0.76490   0.17330   0.45255 
H          H       0.77930   0.13900   0.15485 
H          H       0.75540   0.21270   0.27160 
C          C       0.73920   0.16670   0.40300 
C          C       0.73170   0.14420   0.49220 
C          C       0.72100   0.18280   0.26890 
C          C       0.70670   0.13910   0.44525 
H          H       0.74810   0.12760   0.08470 
C          C       0.69630   0.17700   0.21890 
H          H       0.72530   0.20080   0.19990 
C          C       0.68670   0.15740   0.31790 
H          H       0.70070   0.12230   0.01685 
H          H       0.67950   0.19370   0.12760 
C          C       0.64120   0.16280   0.17735 
H          H       0.65150   0.16340   0.05365 
C          C       0.60750   0.16650   0.16765 
C          C       0.59430   0.15200   0.27830 
C          C       0.58850   0.18420   0.03745 
C          C       0.56390   0.15390   0.24905 
H          H       0.60950   0.13620   0.37570 
C          C       0.55770   0.18670   0.01085 
H          H       0.59880   0.19510   0.45075 
C          C       0.54510   0.17090   0.11800 
H          H       0.55260   0.14430   0.33635 
H          H       0.54250   0.20310   0.41530 
C          C       0.51070   0.17480   0.11040 
C          C       0.50670   0.14780   0.12945 
C          C       0.96920   0.69370   0.16025 
C          C       0.95560   0.72380   0.06410 
C          C       0.95240   0.69340   0.29835 
C          C       0.92630   0.75230   0.11235 
H          H       0.97040   0.72580   0.46590 
C          C       0.92320   0.72230   0.34855 
H          H       0.96340   0.67040   0.37275 
C          C       0.90880   0.75190   0.24890 
H          H       0.91520   0.77510   0.03630 
H          H       0.90840   0.72030   0.44705 
C          C       0.87460   0.78230   0.27035 
H          H       0.86620   0.78920   0.39785 
C          C       0.82650   0.82740   0.12755 
C          C       0.79820   0.83560   0.22800 
C          C       0.82170   0.84780   0.49245 
C          C       0.76580   0.86160   0.18130 
H          H       0.80080   0.81890   0.32850 
C          C       0.78960   0.87390   0.44805 
H          H       0.84340   0.84200   0.41530 
C          C       0.76050   0.88140   0.04320 
H          H       0.74440   0.86700   0.25940 
H          H       0.78760   0.89030   0.34735 
C          C       0.72630   0.90960   0.49835 
C          C       0.69700   0.91810   0.09310 
C          C       0.72170   0.92900   0.35980 
C          C       0.66530   0.94530   0.04980 
H          H       0.69840   0.90180   0.19370 
C          C       0.68980   0.95610   0.31495 
H          H       0.74300   0.92290   0.28040 
C          C       0.66150   0.96590   0.41645 
H          H       0.64350   0.95180   0.12720 
H          H       0.68800   0.97260   0.21425 
C          C       0.62000   0.01210   0.26205 
H          H       0.63050   0.00140   0.14340 
C          C       0.59090   0.04660   0.23525 
C          C       0.56230   0.06220   0.33510 
C          C       0.59130   0.06440   0.09790 
C          C       0.53500   0.09400   0.29115 
H          H       0.56010   0.04820   0.43725 
C          C       0.56460   0.09660   0.05775 
H          H       0.61260   0.05210   0.01735 
C          C       0.53580   0.11230   0.15595 
H          H       0.51330   0.10590   0.36975 
H          H       0.56720   0.11010   0.45540 
C          C       0.06270   0.63490   0.02010 
C          C       0.09380   0.62490   0.09010 
C          C       0.06310   0.61910   0.39455 
C          C       0.12420   0.59890   0.03100 
H          H       0.09440   0.64060   0.17030 
C          C       0.09380   0.59370   0.33225 
H          H       0.03910   0.62730   0.34200 
C          C       0.12450   0.58220   0.40890 
H          H       0.14810   0.59020   0.08620 
H          H       0.09340   0.57790   0.25220 
C          C       0.15630   0.55120   0.37105 
H          H       0.16230   0.54530   0.24345 
C          C       0.20520   0.50120   0.43720 
C          C       0.20280   0.48510   0.31850 
C          C       0.23670   0.48750   0.00965 
C          C       0.23170   0.45840   0.25445 
H          H       0.17810   0.49430   0.26955 
C          C       0.26590   0.46120   0.44165 
H          H       0.23970   0.50210   0.08800 
C          C       0.26410   0.44560   0.31850 
H          H       0.22810   0.44420   0.17600 
H          H       0.29050   0.45340   0.48680 
C          C       0.29480   0.41700   0.25490 
C          C       0.29290   0.40160   0.13160 
C          C       0.32720   0.40360   0.32075 
C          C       0.32180   0.37450   0.06655 
H          H       0.26830   0.41000   0.08440 
C          C       0.35580   0.37590   0.26065 
H          H       0.33110   0.41750   0.39970 
C          C       0.35300   0.35970   0.14325 
H          H       0.31840   0.36020   0.48810 
H          H       0.38020   0.36560   0.31345 
C          C       0.39770   0.30790   0.22515 
H          H       0.39130   0.31540   0.35155 
C          C       0.42620   0.27380   0.20065 
C          C       0.42420   0.25770   0.08130 
C          C       0.45600   0.25720   0.28855 
C          C       0.45110   0.22640   0.04190 
H          H       0.40140   0.27050   0.01300 
C          C       0.48330   0.22650   0.24510 
H          H       0.45970   0.27050   0.37210 
C          C       0.48130   0.21000   0.12730 
H          H       0.44690   0.21350   0.45985 
H          H       0.50590   0.21380   0.31370 
N          N       0.38090   0.32750   0.10795 
N          N       0.17580   0.53160   0.48190 
N          N       0.85890   0.79770   0.14420 
N          N       0.63090   0.99780   0.39755 
N          N       0.65520   0.15890   0.30675 
N          N       0.03350   0.79610   0.25505 
N          N       0.02640   0.01380   0.13595 
N          N       0.84730   0.18380   0.05065 
N          N       0.15570   0.15870   0.17125 
N          N       0.35800   0.16220   0.20105 
N          N       0.96360   0.33180   0.21395 
N          N       0.95850   0.54800   0.11125 
C          C       0.27020   0.16310   0.89480 
C          C       0.28690   0.14590   0.76535 
C          C       0.31340   0.14840   0.68630 
C          C       0.32630   0.16550   0.75305 
C          C       0.30860   0.18440   0.87680 
C          C       0.28160   0.18270   0.95155 
C          C       0.24190   0.16060   0.97240 
C          C       0.23090   0.14060   0.91620 
C          C       0.20440   0.13830   0.99245 
C          C       0.18660   0.15700   0.61650 
C          C       0.19900   0.17480   0.68180 
C          C       0.22510   0.17780   0.60180 
H          H       0.27990   0.12950   0.72295 
H          H       0.32890   0.13070   0.60185 
H          H       0.31730   0.19920   0.92265 
H          H       0.26640   0.20050   0.53600 
H          H       0.24620   0.12290   0.83190 
H          H       0.19640   0.12280   0.94795 
H          H       0.18330   0.19230   0.76630 
H          H       0.23180   0.19450   0.64350 
C          C       0.37700   0.16020   0.80820 
C          C       0.13710   0.15940   0.56570 
H          H       0.36950   0.16100   0.93875 
H          H       0.14420   0.15920   0.93495 
C          C       0.41050   0.15630   0.76750 
C          C       0.42880   0.13840   0.64235 
C          C       0.42430   0.17070   0.84845 
C          C       0.45930   0.13610   0.58885 
H          H       0.41820   0.12710   0.58090 
C          C       0.45450   0.16880   0.79280 
H          H       0.40940   0.18680   0.93915 
C          C       0.47230   0.15180   0.66525 
H          H       0.47460   0.11930   0.50110 
H          H       0.46620   0.17840   0.85765 
C          C       0.10520   0.16000   0.60915 
C          C       0.08620   0.17660   0.73610 
C          C       0.09440   0.14260   0.53150 
C          C       0.05760   0.17530   0.79175 
H          H       0.09470   0.18970   0.79730 
C          C       0.06660   0.14030   0.59130 
H          H       0.11040   0.12690   0.94120 
C          C       0.04700   0.15720   0.71685 
H          H       0.04180   0.19120   0.88080 
H          H       0.05830   0.12710   0.53035 
C          C       0.01500   0.15640   0.75280 
C          C       0.98330   0.18470   0.74650 
C          C       0.99780   0.63260   0.61675 
C          C       0.96530   0.63660   0.60515 
C          C       0.02570   0.59960   0.63850 
C          C       0.96130   0.60930   0.61005 
H          H       0.94290   0.66160   0.59175 
C          C       0.02170   0.57230   0.64490 
H          H       0.05100   0.59490   0.65160 
C          C       0.98950   0.57650   0.62940 
H          H       0.93610   0.61310   0.59910 
H          H       0.04380   0.54710   0.66265 
C          C       0.98660   0.54680   0.63500 
H          H       0.01070   0.52250   0.65935 
C          C       0.95890   0.51750   0.62405 
C          C       0.94080   0.51230   0.52015 
C          C       0.97650   0.49240   0.74135 
C          C       0.94180   0.48200   0.52795 
H          H       0.92730   0.53140   0.92790 
C          C       0.97640   0.46270   0.75145 
H          H       0.98990   0.49630   0.82590 
C          C       0.95940   0.45680   0.64485 
H          H       0.92790   0.47820   0.94530 
H          H       0.98980   0.44380   0.84430 
C          C       0.95980   0.42460   0.65925 
C          C       0.97770   0.40060   0.55285 
C          C       0.94330   0.41710   0.78345 
C          C       0.97890   0.37020   0.56850 
H          H       0.99140   0.40540   0.95710 
C          C       0.94430   0.38680   0.80000 
H          H       0.92950   0.43520   0.86860 
C          C       0.96190   0.36310   0.69195 
H          H       0.99350   0.35180   0.98580 
H          H       0.93130   0.38150   0.89735 
C          C       0.96580   0.31600   0.59705 
H          H       0.96560   0.32460   0.96570 
C          C       0.96870   0.28310   0.62705 
C          C       0.95320   0.27720   0.75950 
C          C       0.98770   0.25690   0.53120 
C          C       0.95770   0.24570   0.80220 
H          H       0.93810   0.29750   0.83340 
C          C       0.99290   0.22520   0.57655 
H          H       0.00070   0.26050   0.92890 
C          C       0.97860   0.21880   0.71155 
H          H       0.94370   0.24270   0.90110 
H          H       0.00650   0.20530   0.50050 
C          C       0.01920   0.12230   0.75705 
C          C       0.00430   0.11610   0.64230 
C          C       0.03900   0.09570   0.86490 
C          C       0.00770   0.08510   0.63440 
H          H       0.99150   0.13580   0.55200 
C          C       0.04160   0.06480   0.86050 
H          H       0.05320   0.09830   0.94955 
C          C       0.02570   0.05910   0.74810 
H          H       0.99450   0.08160   0.54715 
H          H       0.05580   0.04490   0.94880 
C          C       0.02700   0.02700   0.75695 
H          H       0.02800   0.01690   0.88575 
C          C       0.02800   0.98250   0.65535 
C          C       0.04630   0.95820   0.77415 
C          C       0.01160   0.97520   0.55145 
C          C       0.04730   0.92790   0.79025 
H          H       0.06010   0.96280   0.85365 
C          C       0.01280   0.94470   0.56785 
H          H       0.99740   0.99360   0.95780 
C          C       0.03050   0.92080   0.68805 
H          H       0.06170   0.90940   0.88315 
H          H       0.99970   0.93970   0.98625 
C          C       0.03160   0.88810   0.70595 
C          C       0.01490   0.88070   0.82965 
C          C       0.04940   0.86420   0.59925 
C          C       0.01550   0.85060   0.84485 
H          H       0.00100   0.89880   0.91460 
C          C       0.05030   0.83400   0.61420 
H          H       0.06300   0.86920   0.50335 
C          C       0.03300   0.82690   0.73665 
H          H       0.00210   0.84560   0.94135 
H          H       0.06490   0.81560   0.53115 
C          C       0.03510   0.78210   0.63260 
H          H       0.03540   0.79210   0.50465 
C          C       0.03620   0.75020   0.63480 
C          C       0.01910   0.74000   0.74675 
C          C       0.05300   0.73030   0.51300 
C          C       0.01710   0.71200   0.72675 
H          H       0.00440   0.75600   0.83800 
C          C       0.05150   0.70200   0.99475 
H          H       0.06600   0.73810   0.92575 
C          C       0.03240   0.69300   0.60100 
H          H       0.00520   0.70360   0.81660 
H          H       0.06660   0.68580   0.90485 
C          C       0.03040   0.66310   0.58055 
C          C       0.00100   0.66250   0.61460 
C          C       0.95140   0.18370   0.73895 
C          C       0.93110   0.20040   0.61090 
C          C       0.94140   0.16560   0.84565 
C          C       0.90320   0.19800   0.58050 
H          H       0.93890   0.21390   0.52620 
C          C       0.91260   0.16420   0.81915 
H          H       0.95730   0.15040   0.94105 
C          C       0.89310   0.18030   0.68905 
H          H       0.88680   0.21320   0.98540 
H          H       0.90430   0.15150   0.90615 
C          C       0.86100   0.18060   0.67990 
H          H       0.85130   0.17900   0.80365 
C          C       0.81660   0.18380   0.53890 
C          C       0.80750   0.16360   0.63700 
C          C       0.79650   0.20200   0.91165 
C          C       0.78320   0.15730   0.58645 
H          H       0.82450   0.14700   0.72820 
C          C       0.77200   0.19620   0.86380 
H          H       0.80190   0.21920   0.84110 
C          C       0.76490   0.17330   0.95255 
H          H       0.77930   0.13900   0.65485 
H          H       0.75540   0.21270   0.77160 
C          C       0.73920   0.16670   0.90300 
C          C       0.73170   0.14420   0.99220 
C          C       0.72100   0.18280   0.76890 
C          C       0.70670   0.13910   0.94525 
H          H       0.74810   0.12760   0.58470 
C          C       0.69630   0.17700   0.71890 
H          H       0.72530   0.20080   0.69990 
C          C       0.68670   0.15740   0.81790 
H          H       0.70070   0.12230   0.51685 
H          H       0.67950   0.19370   0.62760 
C          C       0.64120   0.16280   0.67735 
H          H       0.65150   0.16340   0.55365 
C          C       0.60750   0.16650   0.66765 
C          C       0.59430   0.15200   0.77830 
C          C       0.58850   0.18420   0.53745 
C          C       0.56390   0.15390   0.74905 
H          H       0.60950   0.13620   0.87570 
C          C       0.55770   0.18670   0.51085 
H          H       0.59880   0.19510   0.95075 
C          C       0.54510   0.17090   0.61800 
H          H       0.55260   0.14430   0.83635 
H          H       0.54250   0.20310   0.91530 
C          C       0.51070   0.17480   0.61040 
C          C       0.50670   0.14780   0.62945 
C          C       0.96920   0.69370   0.66025 
C          C       0.95560   0.72380   0.56410 
C          C       0.95240   0.69340   0.79835 
C          C       0.92630   0.75230   0.61235 
H          H       0.97040   0.72580   0.96590 
C          C       0.92320   0.72230   0.84855 
H          H       0.96340   0.67040   0.87275 
C          C       0.90880   0.75190   0.74890 
H          H       0.91520   0.77510   0.53630 
H          H       0.90840   0.72030   0.94705 
C          C       0.87460   0.78230   0.77035 
H          H       0.86620   0.78920   0.89785 
C          C       0.82650   0.82740   0.62755 
C          C       0.79820   0.83560   0.72800 
C          C       0.82170   0.84780   0.99245 
C          C       0.76580   0.86160   0.68130 
H          H       0.80080   0.81890   0.82850 
C          C       0.78960   0.87390   0.94805 
H          H       0.84340   0.84200   0.91530 
C          C       0.76050   0.88140   0.54320 
H          H       0.74440   0.86700   0.75940 
H          H       0.78760   0.89030   0.84735 
C          C       0.72630   0.90960   0.99835 
C          C       0.69700   0.91810   0.59310 
C          C       0.72170   0.92900   0.85980 
C          C       0.66530   0.94530   0.54980 
H          H       0.69840   0.90180   0.69370 
C          C       0.68980   0.95610   0.81495 
H          H       0.74300   0.92290   0.78040 
C          C       0.66150   0.96590   0.91645 
H          H       0.64350   0.95180   0.62720 
H          H       0.68800   0.97260   0.71425 
C          C       0.62000   0.01210   0.76205 
H          H       0.63050   0.00140   0.64340 
C          C       0.59090   0.04660   0.73525 
C          C       0.56230   0.06220   0.83510 
C          C       0.59130   0.06440   0.59790 
C          C       0.53500   0.09400   0.79115 
H          H       0.56010   0.04820   0.93725 
C          C       0.56460   0.09660   0.55775 
H          H       0.61260   0.05210   0.51735 
C          C       0.53580   0.11230   0.65595 
H          H       0.51330   0.10590   0.86975 
H          H       0.56720   0.11010   0.95540 
C          C       0.06270   0.63490   0.52010 
C          C       0.09380   0.62490   0.59010 
C          C       0.06310   0.61910   0.89455 
C          C       0.12420   0.59890   0.53100 
H          H       0.09440   0.64060   0.67030 
C          C       0.09380   0.59370   0.83225 
H          H       0.03910   0.62730   0.84200 
C          C       0.12450   0.58220   0.90890 
H          H       0.14810   0.59020   0.58620 
H          H       0.09340   0.57790   0.75220 
C          C       0.15630   0.55120   0.87105 
H          H       0.16230   0.54530   0.74345 
C          C       0.20520   0.50120   0.93720 
C          C       0.20280   0.48510   0.81850 
C          C       0.23670   0.48750   0.50965 
C          C       0.23170   0.45840   0.75445 
H          H       0.17810   0.49430   0.76955 
C          C       0.26590   0.46120   0.94165 
H          H       0.23970   0.50210   0.58800 
C          C       0.26410   0.44560   0.81850 
H          H       0.22810   0.44420   0.67600 
H          H       0.29050   0.45340   0.98680 
C          C       0.29480   0.41700   0.75490 
C          C       0.29290   0.40160   0.63160 
C          C       0.32720   0.40360   0.82075 
C          C       0.32180   0.37450   0.56655 
H          H       0.26830   0.41000   0.58440 
C          C       0.35580   0.37590   0.76065 
H          H       0.33110   0.41750   0.89970 
C          C       0.35300   0.35970   0.64325 
H          H       0.31840   0.36020   0.98810 
H          H       0.38020   0.36560   0.81345 
C          C       0.39770   0.30790   0.72515 
H          H       0.39130   0.31540   0.85155 
C          C       0.42620   0.27380   0.70065 
C          C       0.42420   0.25770   0.58130 
C          C       0.45600   0.25720   0.78855 
C          C       0.45110   0.22640   0.54190 
H          H       0.40140   0.27050   0.51300 
C          C       0.48330   0.22650   0.74510 
H          H       0.45970   0.27050   0.87210 
C          C       0.48130   0.21000   0.62730 
H          H       0.44690   0.21350   0.95985 
H          H       0.50590   0.21380   0.81370 
N          N       0.38090   0.32750   0.60795 
N          N       0.17580   0.53160   0.98190 
N          N       0.85890   0.79770   0.64420 
N          N       0.63090   0.99780   0.89755 
N          N       0.65520   0.15890   0.80675 
N          N       0.03350   0.79610   0.75505 
N          N       0.02640   0.01380   0.63595 
N          N       0.84730   0.18380   0.55065 
N          N       0.15570   0.15870   0.67125 
N          N       0.35800   0.16220   0.70105 
N          N       0.96360   0.33180   0.71395 
N          N       0.95850   0.54800   0.61125 
