data_crystal

_cell_length_a    23.65500
_cell_length_b    23.65500
_cell_length_c    9.60000
_cell_angle_alpha 78.00000
_cell_angle_beta  78.00000
_cell_angle_gamma 120.00000

_space_group_name_Hall 'P 1'
_space_group_name_H-M_alt  'P 1'

loop_
_symmetry_equiv_pos_as_xyz
'x,y,z' 

loop_
_atom_site_label
_atom_site_type_symbol
_atom_site_fract_x
_atom_site_fract_y
_atom_site_fract_z
C          C       0.73632   0.37389   0.37803 
C          C       0.69558   0.40251   0.38396 
C          C       0.72667   0.47594   0.40481 
C          C       0.80910   0.41546   0.35000 
C          C       0.85114   0.47062   0.43027 
C          C       0.91827   0.50608   0.40386 
C          C       0.94648   0.48538   0.30305 
C          C       0.90544   0.42988   0.22333 
C          C       0.83768   0.39749   0.24281 
N          N       0.01641   0.52195   0.28693 
C          C       0.05224   0.50711   0.20941 
C          C       0.12418   0.54929   0.20653 
C          C       0.15599   0.60871   0.27941 
C          C       0.22410   0.64714   0.27670 
C          C       0.26234   0.62716   0.20218 
C          C       0.23003   0.56770   0.12910 
C          C       0.16192   0.52942   0.13077 
H          H       0.76334   0.50297   0.32247 
H          H       0.74845   0.48904   0.00979 
H          H       0.69271   0.49502   0.40764 
H          H       0.83407   0.48480   0.02005 
H          H       0.94909   0.54805   0.46806 
H          H       0.92444   0.41222   0.14257 
H          H       0.80733   0.35634   0.17689 
H          H       0.03055   0.46277   0.14842 
H          H       0.12835   0.62554   0.33893 
H          H       0.24686   0.69260   0.33296 
H          H       0.25749   0.55042   0.07159 
H          H       0.13870   0.48388   0.07341 
C          C       0.62611   0.36242   0.37803 
C          C       0.59749   0.29307   0.38396 
C          C       0.52406   0.25073   0.40481 
C          C       0.58454   0.39364   0.35000 
C          C       0.52938   0.38052   0.43027 
C          C       0.49392   0.41219   0.40386 
C          C       0.51462   0.46110   0.30305 
C          C       0.57012   0.47556   0.22333 
C          C       0.60251   0.44019   0.24281 
N          N       0.47805   0.49446   0.28693 
C          C       0.49289   0.54513   0.20941 
C          C       0.45071   0.57490   0.20653 
C          C       0.39129   0.54727   0.27941 
C          C       0.35286   0.57696   0.27670 
C          C       0.37284   0.63518   0.20218 
C          C       0.43230   0.66233   0.12910 
C          C       0.47058   0.63250   0.13077 
H          H       0.49703   0.26038   0.32247 
H          H       0.51096   0.25940   0.00979 
H          H       0.50498   0.19769   0.40764 
H          H       0.51520   0.34927   0.02005 
H          H       0.45195   0.40104   0.46806 
H          H       0.58778   0.51222   0.14257 
H          H       0.64366   0.45099   0.17689 
H          H       0.53723   0.56778   0.14842 
H          H       0.37446   0.50281   0.33893 
H          H       0.30740   0.55426   0.33296 
H          H       0.44958   0.70707   0.07159 
H          H       0.51612   0.65481   0.07341 
C          C       0.63758   0.26368   0.37803 
C          C       0.70693   0.30442   0.38396 
C          C       0.74927   0.27333   0.40481 
C          C       0.60636   0.19090   0.35000 
C          C       0.61948   0.14886   0.43027 
C          C       0.58781   0.08173   0.40386 
C          C       0.53890   0.05352   0.30305 
C          C       0.52444   0.09456   0.22333 
C          C       0.55981   0.16232   0.24281 
N          N       0.50554   0.98359   0.28693 
C          C       0.45487   0.94776   0.20941 
C          C       0.42510   0.87582   0.20653 
C          C       0.45273   0.84401   0.27941 
C          C       0.42304   0.77590   0.27670 
C          C       0.36482   0.73766   0.20218 
C          C       0.33767   0.76997   0.12910 
C          C       0.36750   0.83808   0.13077 
H          H       0.73962   0.23666   0.32247 
H          H       0.74060   0.25155   0.00979 
H          H       0.80231   0.30729   0.40764 
H          H       0.65073   0.16593   0.02005 
H          H       0.59896   0.05091   0.46806 
H          H       0.48778   0.07556   0.14257 
H          H       0.54901   0.19267   0.17689 
H          H       0.43222   0.96945   0.14842 
H          H       0.49719   0.87165   0.33893 
H          H       0.44574   0.75314   0.33296 
H          H       0.29293   0.74251   0.07159 
H          H       0.34519   0.86130   0.07341 
N          N       0.33333   0.66667   0.20140 
C          C       0.73632   0.37389   0.87804 
C          C       0.69558   0.40251   0.88396 
C          C       0.72667   0.47594   0.90481 
C          C       0.80910   0.41546   0.85001 
C          C       0.85114   0.47062   0.93027 
C          C       0.91827   0.50608   0.90386 
C          C       0.94648   0.48538   0.80305 
C          C       0.90544   0.42988   0.72333 
C          C       0.83768   0.39749   0.74281 
N          N       0.01641   0.52195   0.78693 
C          C       0.05224   0.50711   0.70941 
C          C       0.12418   0.54929   0.70653 
C          C       0.15599   0.60871   0.77942 
C          C       0.22410   0.64714   0.77670 
C          C       0.26234   0.62716   0.70219 
C          C       0.23003   0.56770   0.62910 
C          C       0.16192   0.52942   0.63077 
H          H       0.76334   0.50297   0.82247 
H          H       0.74845   0.48904   0.50979 
H          H       0.69271   0.49502   0.90764 
H          H       0.83407   0.48480   0.52005 
H          H       0.94909   0.54805   0.96806 
H          H       0.92444   0.41222   0.64257 
H          H       0.80733   0.35634   0.67689 
H          H       0.03055   0.46277   0.64842 
H          H       0.12835   0.62554   0.83894 
H          H       0.24686   0.69260   0.83296 
H          H       0.25749   0.55042   0.57159 
H          H       0.13870   0.48388   0.57341 
C          C       0.62611   0.36242   0.87804 
C          C       0.59749   0.29307   0.88396 
C          C       0.52406   0.25073   0.90481 
C          C       0.58454   0.39364   0.85001 
C          C       0.52938   0.38052   0.93027 
C          C       0.49392   0.41219   0.90386 
C          C       0.51462   0.46110   0.80305 
C          C       0.57012   0.47556   0.72333 
C          C       0.60251   0.44019   0.74281 
N          N       0.47805   0.49446   0.78693 
C          C       0.49289   0.54513   0.70941 
C          C       0.45071   0.57490   0.70653 
C          C       0.39129   0.54727   0.77942 
C          C       0.35286   0.57696   0.77670 
C          C       0.37284   0.63518   0.70219 
C          C       0.43230   0.66233   0.62910 
C          C       0.47058   0.63250   0.63077 
H          H       0.49703   0.26038   0.82247 
H          H       0.51096   0.25940   0.50979 
H          H       0.50498   0.19769   0.90764 
H          H       0.51520   0.34927   0.52005 
H          H       0.45195   0.40104   0.96806 
H          H       0.58778   0.51222   0.64257 
H          H       0.64366   0.45099   0.67689 
H          H       0.53723   0.56778   0.64842 
H          H       0.37446   0.50281   0.83894 
H          H       0.30740   0.55426   0.83296 
H          H       0.44958   0.70707   0.57159 
H          H       0.51612   0.65481   0.57341 
C          C       0.63758   0.26368   0.87804 
C          C       0.70693   0.30442   0.88396 
C          C       0.74927   0.27333   0.90481 
C          C       0.60636   0.19090   0.85001 
C          C       0.61948   0.14886   0.93027 
C          C       0.58781   0.08173   0.90386 
C          C       0.53890   0.05352   0.80305 
C          C       0.52444   0.09456   0.72333 
C          C       0.55981   0.16232   0.74281 
N          N       0.50554   0.98359   0.78693 
C          C       0.45487   0.94776   0.70941 
C          C       0.42510   0.87582   0.70653 
C          C       0.45273   0.84401   0.77942 
C          C       0.42304   0.77590   0.77670 
C          C       0.36482   0.73766   0.70219 
C          C       0.33767   0.76997   0.62910 
C          C       0.36750   0.83808   0.63077 
H          H       0.73962   0.23666   0.82247 
H          H       0.74060   0.25155   0.50979 
H          H       0.80231   0.30729   0.90764 
H          H       0.65073   0.16593   0.52005 
H          H       0.59896   0.05091   0.96806 
H          H       0.48778   0.07556   0.64257 
H          H       0.54901   0.19267   0.67689 
H          H       0.43222   0.96945   0.64842 
H          H       0.49719   0.87165   0.83894 
H          H       0.44574   0.75314   0.83296 
H          H       0.29293   0.74251   0.57159 
H          H       0.34519   0.86130   0.57341 
N          N       0.33333   0.66667   0.70140 
