data_crystal

_cell_length_a    25.02200
_cell_length_b    25.02200
_cell_length_c    8.30000
_cell_angle_alpha 90.00000
_cell_angle_beta  90.00000
_cell_angle_gamma 120.00000

_space_group_name_Hall 'P 1'
_space_group_name_H-M_alt  'P 1'

loop_
_symmetry_equiv_pos_as_xyz
'x,y,z' 

loop_
_atom_site_label
_atom_site_type_symbol
_atom_site_fract_x
_atom_site_fract_y
_atom_site_fract_z
C          C       0.36830   0.63817   0.45148 
C          C       0.36183   0.73013   0.45148 
C          C       0.26987   0.63170   0.45148 
C          C       0.40401   0.60825   0.48157 
C          C       0.39175   0.79576   0.48157 
C          C       0.20424   0.59599   0.48157 
C          C       0.39006   0.57164   0.09650 
C          C       0.42836   0.81842   0.09650 
C          C       0.18158   0.60994   0.09650 
C          C       0.41909   0.53922   0.12169 
C          C       0.46078   0.87987   0.12169 
C          C       0.12013   0.58091   0.12169 
C          C       0.46568   0.54573   0.03676 
C          C       0.45427   0.91995   0.03676 
C          C       0.08005   0.53432   0.03676 
C          C       0.48083   0.58350   0.42461 
C          C       0.41650   0.89733   0.42461 
C          C       0.10267   0.51917   0.42461 
C          C       0.44963   0.61345   0.39560 
C          C       0.38655   0.83618   0.39560 
C          C       0.16382   0.55037   0.39560 
N          N       0.49870   0.51522   0.05929 
N          N       0.48478   0.98348   0.05929 
N          N       0.01652   0.50130   0.05929 
C          C       0.49049   0.47742   0.15514 
C          C       0.52258   0.01307   0.15514 
C          C       0.98693   0.50951   0.15514 
C          C       0.52812   0.44938   0.16333 
C          C       0.55062   0.07874   0.16333 
C          C       0.92126   0.47188   0.16333 
C          C       0.51467   0.40435   0.25921 
C          C       0.59565   0.11032   0.25921 
C          C       0.88968   0.48533   0.25921 
C          C       0.54882   0.37616   0.26644 
C          C       0.62384   0.17266   0.26644 
C          C       0.82734   0.45118   0.26644 
C          C       0.59750   0.39311   0.17893 
C          C       0.60689   0.20439   0.17893 
C          C       0.79561   0.40250   0.17893 
C          C       0.61148   0.43872   0.08417 
C          C       0.56128   0.17276   0.08417 
C          C       0.82724   0.38852   0.08417 
C          C       0.57699   0.46647   0.07600 
C          C       0.53353   0.11052   0.07600 
C          C       0.88948   0.42301   0.07600 
C          C       0.63296   0.36253   0.18429 
C          C       0.63747   0.27043   0.18429 
C          C       0.72957   0.36704   0.18429 
C          C       0.69568   0.39584   0.18459 
C          C       0.60416   0.29984   0.18459 
C          C       0.70016   0.30432   0.18459 
C          C       0.39675   0.70158   0.44657 
C          C       0.29842   0.69517   0.44657 
C          C       0.30483   0.60325   0.44657 
H          H       0.54804   0.19636   0.01434 
H          H       0.80364   0.35168   0.01434 
H          H       0.64832   0.45196   0.01434 
H          H       0.49904   0.08743   0.00072 
H          H       0.91257   0.41161   0.00072 
H          H       0.58839   0.50096   0.00072 
H          H       0.65849   0.19609   0.34127 
H          H       0.80391   0.46240   0.34127 
H          H       0.53760   0.34151   0.34127 
H          H       0.43317   0.78837   0.16507 
H          H       0.21163   0.64480   0.16507 
H          H       0.35520   0.56683   0.16507 
H          H       0.48983   0.89491   0.20870 
H          H       0.10509   0.59492   0.20870 
H          H       0.40508   0.51017   0.20870 
H          H       0.41154   0.92755   0.35695 
H          H       0.07245   0.48399   0.35695 
H          H       0.51601   0.58846   0.35695 
H          H       0.36091   0.82121   0.30353 
H          H       0.17879   0.53970   0.30353 
H          H       0.46030   0.63909   0.30353 
H          H       0.53513   0.99068   0.22940 
H          H       0.00932   0.54445   0.22940 
H          H       0.45555   0.46487   0.22940 
H          H       0.72611   0.28185   0.18316 
H          H       0.71815   0.44426   0.18316 
H          H       0.55574   0.27389   0.18316 
C          C       0.26508   0.72119   0.43967 
H          H       0.29444   0.77024   0.43667 
H          H       0.23588   0.70856   0.54345 
H          H       0.23729   0.70635   0.33315 
C          C       0.44914   0.73234   0.44035 
H          H       0.47014   0.70415   0.43723 
H          H       0.46503   0.76159   0.54415 
H          H       0.46133   0.76009   0.33385 
C          C       0.27304   0.55393   0.45766 
H          H       0.29835   0.52988   0.45441 
H          H       0.24082   0.53871   0.36002 
H          H       0.24868   0.54467   0.56945 
H          H       0.89939   0.51958   0.30565 
H          H       0.60581   0.08562   0.31807 
H          H       0.48088   0.39523   0.31848 
C          C       0.36830   0.63817   0.95148 
C          C       0.36183   0.73013   0.95148 
C          C       0.26987   0.63170   0.95148 
C          C       0.40401   0.60825   0.98157 
C          C       0.39175   0.79576   0.98157 
C          C       0.20424   0.59599   0.98157 
C          C       0.39006   0.57164   0.59650 
C          C       0.42836   0.81842   0.59650 
C          C       0.18158   0.60994   0.59650 
C          C       0.41909   0.53922   0.62169 
C          C       0.46078   0.87987   0.62169 
C          C       0.12013   0.58091   0.62169 
C          C       0.46568   0.54573   0.53676 
C          C       0.45427   0.91995   0.53676 
C          C       0.08005   0.53432   0.53676 
C          C       0.48083   0.58350   0.92461 
C          C       0.41650   0.89733   0.92461 
C          C       0.10267   0.51917   0.92461 
C          C       0.44963   0.61345   0.89560 
C          C       0.38655   0.83618   0.89560 
C          C       0.16382   0.55037   0.89560 
N          N       0.49870   0.51522   0.55929 
N          N       0.48478   0.98348   0.55929 
N          N       0.01652   0.50130   0.55929 
C          C       0.49049   0.47742   0.65514 
C          C       0.52258   0.01307   0.65514 
C          C       0.98693   0.50951   0.65514 
C          C       0.52812   0.44938   0.66333 
C          C       0.55062   0.07874   0.66333 
C          C       0.92126   0.47188   0.66333 
C          C       0.51467   0.40435   0.75921 
C          C       0.59565   0.11032   0.75921 
C          C       0.88968   0.48533   0.75921 
C          C       0.54882   0.37616   0.76644 
C          C       0.62384   0.17266   0.76644 
C          C       0.82734   0.45118   0.76644 
C          C       0.59750   0.39311   0.67893 
C          C       0.60689   0.20439   0.67893 
C          C       0.79561   0.40250   0.67893 
C          C       0.61148   0.43872   0.58417 
C          C       0.56128   0.17276   0.58417 
C          C       0.82724   0.38852   0.58417 
C          C       0.57699   0.46647   0.57600 
C          C       0.53353   0.11052   0.57600 
C          C       0.88948   0.42301   0.57600 
C          C       0.63296   0.36253   0.68429 
C          C       0.63747   0.27043   0.68429 
C          C       0.72957   0.36704   0.68429 
C          C       0.69568   0.39584   0.68459 
C          C       0.60416   0.29984   0.68459 
C          C       0.70016   0.30432   0.68459 
C          C       0.39675   0.70158   0.94657 
C          C       0.29842   0.69517   0.94657 
C          C       0.30483   0.60325   0.94657 
H          H       0.54804   0.19636   0.51434 
H          H       0.80364   0.35168   0.51434 
H          H       0.64832   0.45196   0.51434 
H          H       0.49904   0.08743   0.50072 
H          H       0.91257   0.41161   0.50072 
H          H       0.58839   0.50096   0.50072 
H          H       0.65849   0.19609   0.84127 
H          H       0.80391   0.46240   0.84127 
H          H       0.53760   0.34151   0.84127 
H          H       0.43317   0.78837   0.66507 
H          H       0.21163   0.64480   0.66507 
H          H       0.35520   0.56683   0.66507 
H          H       0.48983   0.89491   0.70870 
H          H       0.10509   0.59492   0.70870 
H          H       0.40508   0.51017   0.70870 
H          H       0.41154   0.92755   0.85695 
H          H       0.07245   0.48399   0.85695 
H          H       0.51601   0.58846   0.85695 
H          H       0.36091   0.82121   0.80353 
H          H       0.17879   0.53970   0.80353 
H          H       0.46030   0.63909   0.80353 
H          H       0.53513   0.99068   0.72940 
H          H       0.00932   0.54445   0.72940 
H          H       0.45555   0.46487   0.72940 
H          H       0.72611   0.28185   0.68316 
H          H       0.71815   0.44426   0.68316 
H          H       0.55574   0.27389   0.68316 
C          C       0.26508   0.72119   0.93967 
H          H       0.29444   0.77024   0.93667 
H          H       0.23588   0.70856   0.04345 
H          H       0.23729   0.70635   0.83315 
C          C       0.44914   0.73234   0.94035 
H          H       0.47014   0.70415   0.93723 
H          H       0.46503   0.76159   0.04415 
H          H       0.46133   0.76009   0.83385 
C          C       0.27304   0.55393   0.95766 
H          H       0.29835   0.52988   0.95441 
H          H       0.24082   0.53871   0.86002 
H          H       0.24868   0.54467   0.06945 
H          H       0.89939   0.51958   0.80565 
H          H       0.60581   0.08562   0.81807 
H          H       0.48088   0.39523   0.81848 
