data_crystal

_cell_length_a    31.00540
_cell_length_b    31.46080
_cell_length_c    7.70262
_cell_angle_alpha 99.26550
_cell_angle_beta  87.67610
_cell_angle_gamma 120.51200

_space_group_name_Hall 'P 1'
_space_group_name_H-M_alt  'P 1'

loop_
_symmetry_equiv_pos_as_xyz
'x,y,z' 

loop_
_atom_site_label
_atom_site_type_symbol
_atom_site_fract_x
_atom_site_fract_y
_atom_site_fract_z
C          C       0.14610   0.24301   0.89703 
C          C       0.16611   0.21148   0.89288 
C          C       0.21854   0.23302   0.90105 
C          C       0.25067   0.28503   0.91055 
C          C       0.22955   0.31576   0.92166 
C          C       0.17723   0.29532   0.91623 
H          H       0.10521   0.22625   0.88179 
H          H       0.23465   0.20892   0.90295 
H          H       0.25451   0.35653   0.93313 
C          C       0.30565   0.30688   0.90143 
C          C       0.34021   0.35543   0.98804 
C          C       0.32506   0.27972   0.79797 
C          C       0.39159   0.37594   0.96913 
H          H       0.32703   0.37749   0.07491 
C          C       0.37637   0.30014   0.77951 
H          H       0.29950   0.24212   0.72514 
C          C       0.41100   0.34909   0.86292 
H          H       0.41743   0.41385   0.03942 
H          H       0.39006   0.27809   0.69541 
C          C       0.13175   0.15671   0.87890 
C          C       0.08515   0.13777   0.95865 
C          C       0.14353   0.12188   0.78428 
C          C       0.05150   0.08657   0.94207 
H          H       0.07522   0.16345   0.03993 
C          C       0.10979   0.07058   0.76768 
H          H       0.17905   0.13490   0.71711 
C          C       0.06258   0.05159   0.84387 
H          H       0.01581   0.07313   0.00837 
H          H       0.11988   0.04459   0.68955 
C          C       0.15517   0.32794   0.93252 
C          C       0.18098   0.37561   0.88109 
C          C       0.10776   0.31250   0.00397 
C          C       0.16112   0.40706   0.90534 
H          H       0.21712   0.38843   0.81810 
C          C       0.08725   0.34342   0.02435 
H          H       0.08680   0.27617   0.05016 
C          C       0.11410   0.39166   0.97889 
H          H       0.18179   0.44369   0.86145 
H          H       0.05063   0.33066   0.08384 
C          C       0.46559   0.37300   0.84610 
H          H       0.48861   0.40948   0.93336 
N          N       0.49059   0.35688   0.74465 
N          N       0.46538   0.31227   0.62945 
C          C       0.49888   0.30179   0.56006 
C          C       0.57444   0.29928   0.48874 
S          S       0.56266   0.34187   0.63148 
N          N       0.48866   0.25896   0.44356 
N          N       0.53350   0.26128   0.38580 
H          H       0.46208   0.24761   0.34201 
H          H       0.53093   0.22670   0.35400 
N          N       0.62026   0.30714   0.49273 
N          N       0.64814   0.35049   0.61164 
C          C       0.69503   0.36548   0.64047 
C          C       0.72809   0.41208   0.75732 
C          C       0.77902   0.42719   0.78294 
C          C       0.71124   0.44386   0.84256 
C          C       0.81199   0.47271   0.88587 
H          H       0.79325   0.40316   0.71818 
C          C       0.74439   0.48942   0.94517 
H          H       0.67152   0.43258   0.82706 
C          C       0.79572   0.50533   0.96770 
H          H       0.85160   0.48339   0.89841 
H          H       0.72957   0.51284   0.01052 
C          C       0.83194   0.55499   0.06839 
C          C       0.82285   0.59500   0.08679 
C          C       0.87694   0.56367   0.14393 
C          C       0.85825   0.64264   0.17532 
H          H       0.78860   0.58987   0.02639 
C          C       0.91334   0.61106   0.23245 
H          H       0.88331   0.53207   0.13510 
C          C       0.90344   0.65054   0.24452 
C          C       0.84707   0.68390   0.19967 
C          C       0.96100   0.61954   0.30727 
H          H       0.93068   0.68831   0.31157 
C          C       0.88133   0.73147   0.15729 
C          C       0.80131   0.67582   0.27003 
C          C       0.97627   0.58376   0.26723 
C          C       0.99395   0.66469   0.41847 
C          C       0.87004   0.76961   0.18260 
H          H       0.91702   0.73840   0.09986 
C          C       0.79035   0.71411   0.29850 
H          H       0.77433   0.63928   0.30710 
C          C       0.02221   0.59292   0.33024 
H          H       0.95247   0.54794   0.18081 
C          C       0.03987   0.67402   0.48174 
H          H       0.98382   0.69352   0.45946 
C          C       0.82432   0.76159   0.25429 
H          H       0.89691   0.80626   0.14609 
H          H       0.75474   0.70719   0.35669 
C          C       0.05539   0.63867   0.43739 
H          H       0.03298   0.56439   0.29371 
H          H       0.06438   0.70966   0.56821 
C          C       0.10489   0.65090   0.49978 
N          N       0.12293   0.62183   0.45087 
N          N       0.17139   0.63853   0.50894 
C          C       0.18259   0.60504   0.43378 
S          S       0.13555   0.55181   0.29659 
N          N       0.22824   0.60729   0.44519 
C          C       0.17953   0.53153   0.26560 
N          N       0.22419   0.56172   0.36405 
H          H       0.24694   0.62082   0.56837 
N          N       0.16676   0.48975   0.15795 
H          H       0.25675   0.56557   0.30784 
N          N       0.11799   0.47100   0.09575 
C          C       0.09347   0.42553   0.01299 
C          C       0.02799   0.99710   0.81976 
N          N       0.98162   0.97259   0.86370 
N          N       0.95871   0.99898   0.93157 
C          C       0.92137   0.97386   0.02776 
S          S       0.90373   0.91442   0.08347 
N          N       0.89035   0.99236   0.09529 
C          C       0.85292   0.91576   0.18807 
N          N       0.85255   0.95960   0.19509 
H          H       0.90910   0.02928   0.15993 
N          N       0.82069   0.87624   0.25666 
H          H       0.81816   0.95707   0.17973 
N          N       0.83740   0.84261   0.22503 
C          C       0.81095   0.80046   0.28271 
H          H       0.04355   0.97373   0.75616 
H          H       0.12788   0.68736   0.58840 
H          H       0.77635   0.79268   0.35472 
H          H       0.05374   0.41060   0.97153 
H          H       0.71161   0.34353   0.57108 
C          C       0.14610   0.24301   0.39703 
C          C       0.16611   0.21148   0.39288 
C          C       0.21854   0.23302   0.40105 
C          C       0.25067   0.28503   0.41055 
C          C       0.22955   0.31576   0.42166 
C          C       0.17723   0.29532   0.41623 
H          H       0.10521   0.22625   0.38178 
H          H       0.23465   0.20892   0.40295 
H          H       0.25451   0.35653   0.43313 
C          C       0.30566   0.30688   0.40143 
C          C       0.34021   0.35543   0.48804 
C          C       0.32506   0.27972   0.29797 
C          C       0.39159   0.37594   0.46913 
H          H       0.32703   0.37749   0.57491 
C          C       0.37637   0.30014   0.27951 
H          H       0.29950   0.24212   0.22514 
C          C       0.41100   0.34909   0.36292 
H          H       0.41744   0.41385   0.53942 
H          H       0.39006   0.27809   0.19541 
C          C       0.13175   0.15671   0.37890 
C          C       0.08515   0.13777   0.45865 
C          C       0.14353   0.12188   0.28428 
C          C       0.05150   0.08657   0.44207 
H          H       0.07522   0.16345   0.53993 
C          C       0.10979   0.07058   0.26768 
H          H       0.17905   0.13490   0.21711 
C          C       0.06258   0.05159   0.34387 
H          H       0.01581   0.07313   0.50837 
H          H       0.11988   0.04459   0.18956 
C          C       0.15517   0.32794   0.43252 
C          C       0.18098   0.37561   0.38109 
C          C       0.10776   0.31250   0.50396 
C          C       0.16112   0.40706   0.40534 
H          H       0.21712   0.38843   0.31810 
C          C       0.08725   0.34342   0.52434 
H          H       0.08680   0.27617   0.55016 
C          C       0.11410   0.39166   0.47889 
H          H       0.18179   0.44369   0.36145 
H          H       0.05063   0.33066   0.58383 
C          C       0.46559   0.37300   0.34610 
H          H       0.48861   0.40948   0.43336 
N          N       0.49059   0.35689   0.24465 
N          N       0.46538   0.31227   0.12945 
C          C       0.49888   0.30179   0.06006 
C          C       0.57444   0.29928   0.98874 
S          S       0.56266   0.34187   0.13148 
N          N       0.48866   0.25896   0.94356 
N          N       0.53350   0.26128   0.88580 
H          H       0.46208   0.24761   0.84201 
H          H       0.53094   0.22670   0.85400 
N          N       0.62026   0.30714   0.99273 
N          N       0.64814   0.35049   0.11164 
C          C       0.69503   0.36548   0.14047 
C          C       0.72809   0.41208   0.25732 
C          C       0.77902   0.42719   0.28294 
C          C       0.71124   0.44386   0.34256 
C          C       0.81199   0.47271   0.38587 
H          H       0.79325   0.40316   0.21818 
C          C       0.74439   0.48943   0.44517 
H          H       0.67152   0.43258   0.32706 
C          C       0.79573   0.50533   0.46770 
H          H       0.85161   0.48339   0.39841 
H          H       0.72957   0.51284   0.51052 
C          C       0.83194   0.55499   0.56839 
C          C       0.82285   0.59500   0.58679 
C          C       0.87694   0.56367   0.64394 
C          C       0.85825   0.64264   0.67532 
H          H       0.78860   0.58987   0.52639 
C          C       0.91334   0.61106   0.73245 
H          H       0.88331   0.53207   0.63510 
C          C       0.90344   0.65054   0.74452 
C          C       0.84707   0.68390   0.69967 
C          C       0.96100   0.61954   0.80728 
H          H       0.93068   0.68831   0.81158 
C          C       0.88133   0.73147   0.65729 
C          C       0.80131   0.67582   0.77003 
C          C       0.97627   0.58376   0.76723 
C          C       0.99395   0.66469   0.91847 
C          C       0.87004   0.76961   0.68260 
H          H       0.91702   0.73840   0.59986 
C          C       0.79035   0.71411   0.79850 
H          H       0.77433   0.63928   0.80709 
C          C       0.02221   0.59292   0.83024 
H          H       0.95247   0.54795   0.68081 
C          C       0.03987   0.67402   0.98174 
H          H       0.98382   0.69352   0.95946 
C          C       0.82432   0.76159   0.75429 
H          H       0.89691   0.80626   0.64609 
H          H       0.75474   0.70719   0.85669 
C          C       0.05539   0.63867   0.93740 
H          H       0.03298   0.56439   0.79371 
H          H       0.06438   0.70966   0.06821 
C          C       0.10489   0.65090   0.99978 
N          N       0.12293   0.62183   0.95087 
N          N       0.17139   0.63853   0.00894 
C          C       0.18259   0.60504   0.93378 
S          S       0.13555   0.55181   0.79659 
N          N       0.22824   0.60729   0.94519 
C          C       0.17953   0.53153   0.76561 
N          N       0.22419   0.56172   0.86405 
H          H       0.24694   0.62082   0.06837 
N          N       0.16676   0.48975   0.65796 
H          H       0.25675   0.56557   0.80784 
N          N       0.11800   0.47100   0.59575 
C          C       0.09347   0.42553   0.51299 
C          C       0.02799   0.99710   0.31976 
N          N       0.98162   0.97259   0.36370 
N          N       0.95871   0.99898   0.43157 
C          C       0.92137   0.97386   0.52776 
S          S       0.90373   0.91442   0.58347 
N          N       0.89035   0.99236   0.59529 
C          C       0.85292   0.91576   0.68807 
N          N       0.85255   0.95960   0.69509 
H          H       0.90910   0.02928   0.65993 
N          N       0.82069   0.87624   0.75666 
H          H       0.81816   0.95707   0.67973 
N          N       0.83740   0.84261   0.72503 
C          C       0.81095   0.80046   0.78271 
H          H       0.04355   0.97373   0.25616 
H          H       0.12788   0.68736   0.08840 
H          H       0.77635   0.79268   0.85471 
H          H       0.05375   0.41060   0.47153 
H          H       0.71161   0.34353   0.07108 
