data_crystal

_cell_length_a    28.75230
_cell_length_b    31.17890
_cell_length_c    8.65920
_cell_angle_alpha 89.99590
_cell_angle_beta  63.21010
_cell_angle_gamma 89.99980

_space_group_name_Hall 'P 1'
_space_group_name_H-M_alt  'P 1'

loop_
_symmetry_equiv_pos_as_xyz
'x,y,z' 

loop_
_atom_site_label
_atom_site_type_symbol
_atom_site_fract_x
_atom_site_fract_y
_atom_site_fract_z
C          C       0.08111   0.88072   0.35498 
C          C       0.09457   0.92391   0.36870 
C          C       0.06782   0.95829   0.33976 
C          C       0.02876   0.94931   0.29160 
C          C       0.01484   0.90746   0.28236 
C          C       0.03988   0.87265   0.31259 
C          C       0.03123   0.09075   0.20292 
C          C       0.04433   0.04789   0.17660 
C          C       0.06837   0.12328   0.14958 
C          C       0.12150   0.11163   0.06481 
C          C       0.13499   0.06781   0.02633 
C          C       0.09649   0.03576   0.08123 
C          C       0.10879   0.84451   0.39023 
C          C       0.16237   0.14440   0.03237 
C          C       0.15693   0.18654   0.48485 
C          C       0.19220   0.21847   0.47614 
C          C       0.23388   0.20887   0.01205 
C          C       0.24035   0.16648   0.05455 
C          C       0.20497   0.13465   0.06449 
C          C       0.08226   0.80631   0.46668 
C          C       0.10804   0.77259   0.00174 
C          C       0.16078   0.77626   0.46219 
C          C       0.18751   0.81427   0.38605 
C          C       0.16186   0.84791   0.34967 
N          N       0.50140   0.47720   0.24466 
C          C       0.31234   0.23952   0.00617 
N          N       0.26535   0.24343   0.02255 
C          C       0.89021   0.11980   0.43003 
C          C       0.87221   0.07703   0.47301 
C          C       0.90720   0.04240   0.42139 
C          C       0.96044   0.05084   0.32490 
C          C       0.97797   0.09263   0.29382 
C          C       0.94434   0.12768   0.34381 
C          C       0.97420   0.90907   0.24060 
C          C       0.96532   0.95183   0.22372 
C          C       0.94507   0.87644   0.21668 
C          C       0.90503   0.88780   0.17233 
C          C       0.89685   0.93187   0.15061 
C          C       0.92756   0.96390   0.17365 
C          C       0.85281   0.15543   0.46032 
C          C       0.87311   0.85409   0.14309 
C          C       0.89464   0.81371   0.07556 
C          C       0.86488   0.78243   0.04565 
C          C       0.81342   0.79085   0.07957 
C          C       0.79141   0.83090   0.14859 
C          C       0.82091   0.86207   0.18058 
C          C       0.86239   0.19662   0.00575 
C          C       0.83007   0.23104   0.01470 
C          C       0.78751   0.22490   0.47925 
C          C       0.77669   0.18346   0.44047 
C          C       0.80910   0.14916   0.43048 
N          N       0.49900   0.52272   0.24761 
C          C       0.74304   0.76223   0.02769 
N          N       0.78357   0.75704   0.05495 
C          C       0.41889   0.38071   0.14505 
C          C       0.40542   0.42391   0.13131 
C          C       0.43218   0.45829   0.16024 
C          C       0.47123   0.44931   0.20841 
C          C       0.48516   0.40746   0.21766 
C          C       0.46012   0.37265   0.18744 
C          C       0.46877   0.59075   0.29703 
C          C       0.45567   0.54789   0.32336 
C          C       0.43163   0.62328   0.35037 
C          C       0.37851   0.61163   0.43516 
C          C       0.36502   0.56780   0.47364 
C          C       0.40351   0.53576   0.41873 
C          C       0.39121   0.34451   0.10981 
C          C       0.33763   0.64440   0.46760 
C          C       0.34308   0.68654   0.01512 
C          C       0.30781   0.71846   0.02384 
C          C       0.26613   0.70887   0.48795 
C          C       0.25965   0.66648   0.44545 
C          C       0.29503   0.63465   0.43551 
C          C       0.41774   0.30631   0.03339 
C          C       0.39196   0.27259   0.49832 
C          C       0.33922   0.27626   0.03785 
C          C       0.31249   0.31426   0.11398 
C          C       0.33814   0.34791   0.15036 
N          N       0.99860   0.97720   0.25533 
C          C       0.18766   0.73952   0.49388 
N          N       0.23465   0.74343   0.47746 
C          C       0.60980   0.61980   0.06993 
C          C       0.62780   0.57704   0.02695 
C          C       0.59280   0.54241   0.07858 
C          C       0.53956   0.55084   0.17506 
C          C       0.52204   0.59263   0.20614 
C          C       0.55566   0.62768   0.15615 
C          C       0.52580   0.40907   0.25942 
C          C       0.53467   0.45183   0.27628 
C          C       0.55493   0.37644   0.28334 
C          C       0.59497   0.38780   0.32768 
C          C       0.60315   0.43188   0.34939 
C          C       0.57244   0.46390   0.32634 
C          C       0.64719   0.65543   0.03965 
C          C       0.62688   0.35409   0.35692 
C          C       0.60536   0.31371   0.42447 
C          C       0.63511   0.28243   0.45439 
C          C       0.68657   0.29086   0.42045 
C          C       0.70859   0.33090   0.35141 
C          C       0.67909   0.36207   0.31943 
C          C       0.63761   0.69662   0.49424 
C          C       0.66993   0.73104   0.48530 
C          C       0.71249   0.72491   0.02075 
C          C       0.72331   0.68346   0.05953 
C          C       0.69090   0.64916   0.06951 
N          N       0.00100   0.02272   0.25235 
C          C       0.75696   0.26223   0.47232 
N          N       0.71643   0.25704   0.44506 
H          H       0.12448   0.93113   0.40803 
H          H       0.07706   0.99078   0.35650 
H          H       0.02781   0.84042   0.30198 
H          H       0.05640   0.15629   0.18274 
H          H       0.17544   0.05831   0.45691 
H          H       0.10805   0.00270   0.05226 
H          H       0.12493   0.19498   0.45716 
H          H       0.18653   0.25100   0.44422 
H          H       0.27081   0.15823   0.08995 
H          H       0.20948   0.10289   0.10654 
H          H       0.04117   0.80267   0.00350 
H          H       0.08664   0.74358   0.06056 
H          H       0.22848   0.81776   0.35178 
H          H       0.18397   0.87630   0.28712 
H          H       0.33245   0.20903   0.47047 
H          H       0.83092   0.07038   0.04370 
H          H       0.89218   0.01027   0.45409 
H          H       0.95967   0.15980   0.30745 
H          H       0.95316   0.84340   0.23359 
H          H       0.86800   0.94150   0.10964 
H          H       0.92224   0.99698   0.15127 
H          H       0.93487   0.80642   0.04183 
H          H       0.88215   0.75155   0.49431 
H          H       0.75105   0.83777   0.18318 
H          H       0.80234   0.89212   0.23788 
H          H       0.89522   0.20232   0.03241 
H          H       0.83889   0.26265   0.04631 
H          H       0.74439   0.17777   0.41103 
H          H       0.80121   0.11810   0.39149 
H          H       0.73055   0.79406   0.01266 
H          H       0.37552   0.43113   0.09198 
H          H       0.42293   0.49077   0.14349 
H          H       0.47219   0.34042   0.19807 
H          H       0.44360   0.65629   0.31722 
H          H       0.32456   0.55830   0.04307 
H          H       0.39194   0.50270   0.44771 
H          H       0.37508   0.69498   0.04280 
H          H       0.31348   0.75100   0.05576 
H          H       0.22919   0.65823   0.41005 
H          H       0.29052   0.60289   0.39347 
H          H       0.45882   0.30267   0.49657 
H          H       0.41336   0.24358   0.43950 
H          H       0.27152   0.31775   0.14824 
H          H       0.31603   0.37630   0.21290 
H          H       0.16754   0.70903   0.02960 
H          H       0.66909   0.57039   0.45627 
H          H       0.60782   0.51027   0.04589 
H          H       0.54033   0.65980   0.19251 
H          H       0.54684   0.34340   0.26644 
H          H       0.63200   0.44151   0.39035 
H          H       0.57776   0.49698   0.34871 
H          H       0.56513   0.30642   0.45822 
H          H       0.61785   0.25155   0.00575 
H          H       0.74895   0.33777   0.31681 
H          H       0.69766   0.39213   0.26211 
H          H       0.60478   0.70233   0.46756 
H          H       0.66111   0.76266   0.45370 
H          H       0.75561   0.67777   0.08897 
H          H       0.69879   0.61810   0.10849 
H          H       0.76944   0.29406   0.48736 
C          C       0.08111   0.88072   0.85499 
C          C       0.09457   0.92391   0.86870 
C          C       0.06782   0.95829   0.83976 
C          C       0.02876   0.94931   0.79160 
C          C       0.01484   0.90746   0.78236 
C          C       0.03988   0.87265   0.81259 
C          C       0.03123   0.09075   0.70292 
C          C       0.04433   0.04789   0.67660 
C          C       0.06837   0.12328   0.64958 
C          C       0.12150   0.11163   0.56481 
C          C       0.13499   0.06781   0.52633 
C          C       0.09649   0.03576   0.58123 
C          C       0.10879   0.84451   0.89023 
C          C       0.16237   0.14440   0.53237 
C          C       0.15693   0.18654   0.98485 
C          C       0.19220   0.21847   0.97615 
C          C       0.23388   0.20887   0.51205 
C          C       0.24035   0.16648   0.55455 
C          C       0.20497   0.13465   0.56449 
C          C       0.08226   0.80631   0.96668 
C          C       0.10804   0.77259   0.50174 
C          C       0.16078   0.77626   0.96219 
C          C       0.18751   0.81427   0.88605 
C          C       0.16186   0.84791   0.84967 
N          N       0.50140   0.47720   0.74467 
C          C       0.31234   0.23952   0.50617 
N          N       0.26535   0.24343   0.52255 
C          C       0.89021   0.11980   0.93003 
C          C       0.87221   0.07703   0.97301 
C          C       0.90720   0.04240   0.92139 
C          C       0.96044   0.05084   0.82489 
C          C       0.97797   0.09263   0.79382 
C          C       0.94434   0.12768   0.84381 
C          C       0.97420   0.90907   0.74060 
C          C       0.96532   0.95183   0.72372 
C          C       0.94507   0.87644   0.71668 
C          C       0.90503   0.88780   0.67234 
C          C       0.89685   0.93187   0.65061 
C          C       0.92756   0.96390   0.67365 
C          C       0.85281   0.15543   0.96032 
C          C       0.87311   0.85409   0.64310 
C          C       0.89464   0.81371   0.57556 
C          C       0.86488   0.78243   0.54565 
C          C       0.81342   0.79085   0.57957 
C          C       0.79141   0.83090   0.64859 
C          C       0.82091   0.86207   0.68058 
C          C       0.86239   0.19662   0.50575 
C          C       0.83007   0.23104   0.51470 
C          C       0.78751   0.22490   0.97925 
C          C       0.77669   0.18346   0.94047 
C          C       0.80910   0.14916   0.93048 
N          N       0.49900   0.52272   0.74761 
C          C       0.74304   0.76223   0.52769 
N          N       0.78357   0.75704   0.55495 
C          C       0.41889   0.38071   0.64505 
C          C       0.40542   0.42391   0.63131 
C          C       0.43218   0.45829   0.66024 
C          C       0.47123   0.44931   0.70841 
C          C       0.48516   0.40746   0.71766 
C          C       0.46012   0.37265   0.68744 
C          C       0.46877   0.59075   0.79703 
C          C       0.45567   0.54789   0.82336 
C          C       0.43163   0.62328   0.85037 
C          C       0.37851   0.61163   0.93515 
C          C       0.36502   0.56780   0.97364 
C          C       0.40351   0.53576   0.91873 
C          C       0.39121   0.34451   0.60981 
C          C       0.33763   0.64440   0.96760 
C          C       0.34308   0.68654   0.51512 
C          C       0.30781   0.71846   0.52384 
C          C       0.26613   0.70887   0.98795 
C          C       0.25965   0.66648   0.94545 
C          C       0.29503   0.63465   0.93551 
C          C       0.41774   0.30631   0.53338 
C          C       0.39196   0.27259   0.99832 
C          C       0.33922   0.27626   0.53785 
C          C       0.31249   0.31426   0.61398 
C          C       0.33814   0.34791   0.65036 
N          N       0.99860   0.97720   0.75533 
C          C       0.18766   0.73952   0.99388 
N          N       0.23465   0.74343   0.97746 
C          C       0.60980   0.61980   0.56994 
C          C       0.62780   0.57704   0.52695 
C          C       0.59280   0.54241   0.57858 
C          C       0.53956   0.55084   0.67506 
C          C       0.52204   0.59263   0.70614 
C          C       0.55566   0.62768   0.65614 
C          C       0.52580   0.40907   0.75942 
C          C       0.53467   0.45183   0.77628 
C          C       0.55493   0.37644   0.78334 
C          C       0.59497   0.38780   0.82768 
C          C       0.60315   0.43188   0.84939 
C          C       0.57244   0.46390   0.82634 
C          C       0.64719   0.65543   0.53965 
C          C       0.62688   0.35409   0.85693 
C          C       0.60536   0.31371   0.92448 
C          C       0.63511   0.28243   0.95440 
C          C       0.68657   0.29086   0.92045 
C          C       0.70859   0.33090   0.85141 
C          C       0.67909   0.36207   0.81943 
C          C       0.63761   0.69662   0.99424 
C          C       0.66993   0.73104   0.98530 
C          C       0.71249   0.72491   0.52075 
C          C       0.72331   0.68346   0.55953 
C          C       0.69090   0.64916   0.56951 
N          N       0.00100   0.02272   0.75235 
C          C       0.75696   0.26223   0.97233 
N          N       0.71643   0.25704   0.94506 
H          H       0.12448   0.93113   0.90803 
H          H       0.07706   0.99078   0.85650 
H          H       0.02781   0.84042   0.80198 
H          H       0.05640   0.15629   0.68274 
H          H       0.17544   0.05831   0.95691 
H          H       0.10805   0.00270   0.55227 
H          H       0.12493   0.19498   0.95716 
H          H       0.18653   0.25100   0.94422 
H          H       0.27081   0.15823   0.58995 
H          H       0.20948   0.10289   0.60653 
H          H       0.04117   0.80267   0.50350 
H          H       0.08664   0.74358   0.56056 
H          H       0.22848   0.81776   0.85178 
H          H       0.18397   0.87630   0.78712 
H          H       0.33245   0.20903   0.97047 
H          H       0.83092   0.07038   0.54370 
H          H       0.89218   0.01027   0.95408 
H          H       0.95967   0.15980   0.80745 
H          H       0.95316   0.84340   0.73359 
H          H       0.86800   0.94150   0.60964 
H          H       0.92224   0.99698   0.65126 
H          H       0.93487   0.80642   0.54183 
H          H       0.88215   0.75155   0.99431 
H          H       0.75105   0.83777   0.68318 
H          H       0.80234   0.89212   0.73788 
H          H       0.89522   0.20232   0.53242 
H          H       0.83889   0.26265   0.54631 
H          H       0.74439   0.17777   0.91104 
H          H       0.80121   0.11810   0.89149 
H          H       0.73055   0.79406   0.51266 
H          H       0.37552   0.43113   0.59198 
H          H       0.42293   0.49077   0.64348 
H          H       0.47219   0.34042   0.69807 
H          H       0.44360   0.65629   0.81722 
H          H       0.32456   0.55830   0.54307 
H          H       0.39194   0.50270   0.94771 
H          H       0.37508   0.69498   0.54280 
H          H       0.31348   0.75100   0.55576 
H          H       0.22919   0.65823   0.91005 
H          H       0.29052   0.60289   0.89347 
H          H       0.45882   0.30267   0.99658 
H          H       0.41336   0.24358   0.93951 
H          H       0.27152   0.31775   0.64824 
H          H       0.31603   0.37630   0.71290 
H          H       0.16754   0.70903   0.52960 
H          H       0.66909   0.57039   0.95628 
H          H       0.60782   0.51027   0.54588 
H          H       0.54033   0.65980   0.69251 
H          H       0.54684   0.34340   0.76644 
H          H       0.63200   0.44151   0.89035 
H          H       0.57776   0.49698   0.84871 
H          H       0.56513   0.30642   0.95822 
H          H       0.61785   0.25155   0.50575 
H          H       0.74895   0.33777   0.81681 
H          H       0.69766   0.39213   0.76211 
H          H       0.60478   0.70233   0.96756 
H          H       0.66111   0.76266   0.95370 
H          H       0.75561   0.67777   0.58897 
H          H       0.69879   0.61810   0.60849 
H          H       0.76944   0.29406   0.98737 
