data_crystal

_cell_length_a    24.79300
_cell_length_b    24.79300
_cell_length_c    6.72000
_cell_angle_alpha 90.00000
_cell_angle_beta  90.00000
_cell_angle_gamma 90.00000

_space_group_name_Hall 'P 1'
_space_group_name_H-M_alt  'P 1'

loop_
_symmetry_equiv_pos_as_xyz
'x,y,z' 

loop_
_atom_site_label
_atom_site_type_symbol
_atom_site_fract_x
_atom_site_fract_y
_atom_site_fract_z
C          C       0.52351   0.31926   0.25000 
C          C       0.47649   0.68074   0.25000 
C          C       0.68074   0.52351   0.25000 
C          C       0.31926   0.47649   0.25000 
C          C       0.54188   0.37821   0.25000 
C          C       0.45812   0.62179   0.25000 
C          C       0.62179   0.54188   0.25000 
C          C       0.37821   0.45812   0.25000 
N          N       0.59948   0.39416   0.25000 
N          N       0.40052   0.60584   0.25000 
N          N       0.60584   0.59948   0.25000 
N          N       0.39416   0.40052   0.25000 
C          C       0.52566   0.21344   0.25000 
C          C       0.47434   0.78656   0.25000 
C          C       0.78656   0.52566   0.25000 
C          C       0.21344   0.47434   0.25000 
C          C       0.55709   0.26740   0.25000 
C          C       0.44291   0.73260   0.25000 
C          C       0.73260   0.55709   0.25000 
C          C       0.26740   0.44291   0.25000 
C          C       0.52621   0.10784   0.25000 
C          C       0.47379   0.89216   0.25000 
C          C       0.89216   0.52621   0.25000 
C          C       0.10784   0.47379   0.25000 
N          N       0.55631   0.16080   0.25000 
N          N       0.44369   0.83920   0.25000 
N          N       0.83920   0.55631   0.25000 
N          N       0.16080   0.44369   0.25000 
C          C       0.52708   0.00023   0.25000 
C          C       0.47292   0.99977   0.25000 
C          C       0.99977   0.52708   0.25000 
C          C       0.00023   0.47292   0.25000 
C          C       0.55770   0.05428   0.25000 
C          C       0.44230   0.94572   0.25000 
C          C       0.94572   0.55770   0.25000 
C          C       0.05428   0.44230   0.25000 
C          C       0.55857   0.94668   0.25000 
C          C       0.44143   0.05332   0.25000 
C          C       0.05332   0.55857   0.25000 
C          C       0.94668   0.44143   0.25000 
C          C       0.62068   0.94719   0.25000 
C          C       0.37932   0.05281   0.25000 
C          C       0.05281   0.62068   0.25000 
C          C       0.94719   0.37932   0.25000 
C          C       0.65130   0.00123   0.25000 
C          C       0.34870   0.99877   0.25000 
C          C       0.99877   0.65130   0.25000 
C          C       0.00123   0.34870   0.25000 
C          C       0.61981   0.05478   0.25000 
C          C       0.38019   0.94522   0.25000 
C          C       0.94522   0.61981   0.25000 
C          C       0.05478   0.38019   0.25000 
C          C       0.52871   0.68120   0.25000 
C          C       0.47129   0.31880   0.25000 
C          C       0.31880   0.52871   0.25000 
C          C       0.68120   0.47129   0.25000 
N          N       0.49934   0.58467   0.25000 
N          N       0.50066   0.41533   0.25000 
N          N       0.41533   0.49934   0.25000 
N          N       0.58467   0.50066   0.25000 
C          C       0.54804   0.62256   0.25000 
C          C       0.45196   0.37744   0.25000 
C          C       0.37744   0.54804   0.25000 
C          C       0.62256   0.45196   0.25000 
C          C       0.56144   0.73360   0.25000 
C          C       0.43856   0.26640   0.25000 
C          C       0.26640   0.56144   0.25000 
C          C       0.73360   0.43856   0.25000 
C          C       0.52913   0.78704   0.25000 
C          C       0.47087   0.21296   0.25000 
C          C       0.21296   0.52913   0.25000 
C          C       0.78704   0.47087   0.25000 
N          N       0.55891   0.84017   0.25000 
N          N       0.44109   0.15983   0.25000 
N          N       0.15983   0.55891   0.25000 
N          N       0.84017   0.44109   0.25000 
C          C       0.52795   0.89262   0.25000 
C          C       0.47205   0.10738   0.25000 
C          C       0.10738   0.52795   0.25000 
C          C       0.89262   0.47205   0.25000 
Ni         Ni      0.50000   0.50000   0.25000 
H          H       0.91715   0.65890   0.26301 
H          H       0.99847   0.69440   0.25214 
H          H       0.91673   0.35573   0.26102 
H          H       0.65902   0.08027   0.23558 
H          H       0.69583   0.99995   0.23221 
H          H       0.35826   0.09349   0.26030 
H          H       0.39559   0.26719   0.26715 
H          H       0.60199   0.26801   0.23215 
H          H       0.26470   0.39701   0.24892 
H          H       0.26045   0.61116   0.25470 
H          H       0.08682   0.63527   0.23715 
H          H       0.07590   0.35296   0.24031 
H          H       0.00024   0.30381   0.24828 
H          H       0.39953   0.72861   0.26708 
H          H       0.35206   0.92809   0.26039 
H          H       0.30286   0.00349   0.26847 
H          H       0.64481   0.91643   0.23895 
H          H       0.60471   0.73385   0.23278 
H          H       0.73322   0.59717   0.25164 
H          H       0.73181   0.39667   0.24874 
C          C       0.52351   0.31926   0.75000 
C          C       0.47649   0.68074   0.75000 
C          C       0.68074   0.52351   0.75000 
C          C       0.31926   0.47649   0.75000 
C          C       0.54188   0.37821   0.75000 
C          C       0.45812   0.62179   0.75000 
C          C       0.62179   0.54188   0.75000 
C          C       0.37821   0.45812   0.75000 
N          N       0.59948   0.39416   0.75000 
N          N       0.40052   0.60584   0.75000 
N          N       0.60584   0.59948   0.75000 
N          N       0.39416   0.40052   0.75000 
C          C       0.52566   0.21344   0.75000 
C          C       0.47434   0.78656   0.75000 
C          C       0.78656   0.52566   0.75000 
C          C       0.21344   0.47434   0.75000 
C          C       0.55709   0.26740   0.75000 
C          C       0.44291   0.73260   0.75000 
C          C       0.73260   0.55709   0.75000 
C          C       0.26740   0.44291   0.75000 
C          C       0.52621   0.10784   0.75000 
C          C       0.47379   0.89216   0.75000 
C          C       0.89216   0.52621   0.75000 
C          C       0.10784   0.47379   0.75000 
N          N       0.55631   0.16080   0.75000 
N          N       0.44369   0.83920   0.75000 
N          N       0.83920   0.55631   0.75000 
N          N       0.16080   0.44369   0.75000 
C          C       0.52708   0.00023   0.75000 
C          C       0.47292   0.99977   0.75000 
C          C       0.99977   0.52708   0.75000 
C          C       0.00023   0.47292   0.75000 
C          C       0.55770   0.05428   0.75000 
C          C       0.44230   0.94572   0.75000 
C          C       0.94572   0.55770   0.75000 
C          C       0.05428   0.44230   0.75000 
C          C       0.55857   0.94668   0.75000 
C          C       0.44143   0.05332   0.75000 
C          C       0.05332   0.55857   0.75000 
C          C       0.94668   0.44143   0.75000 
C          C       0.62068   0.94719   0.75000 
C          C       0.37932   0.05281   0.75000 
C          C       0.05281   0.62068   0.75000 
C          C       0.94719   0.37932   0.75000 
C          C       0.65130   0.00123   0.75000 
C          C       0.34870   0.99877   0.75000 
C          C       0.99877   0.65130   0.75000 
C          C       0.00123   0.34870   0.75000 
C          C       0.61981   0.05478   0.75000 
C          C       0.38019   0.94522   0.75000 
C          C       0.94522   0.61981   0.75000 
C          C       0.05478   0.38019   0.75000 
C          C       0.52871   0.68120   0.75000 
C          C       0.47129   0.31880   0.75000 
C          C       0.31880   0.52871   0.75000 
C          C       0.68120   0.47129   0.75000 
N          N       0.49934   0.58467   0.75000 
N          N       0.50066   0.41533   0.75000 
N          N       0.41533   0.49934   0.75000 
N          N       0.58467   0.50066   0.75000 
C          C       0.54804   0.62256   0.75000 
C          C       0.45196   0.37744   0.75000 
C          C       0.37744   0.54804   0.75000 
C          C       0.62256   0.45196   0.75000 
C          C       0.56144   0.73360   0.75000 
C          C       0.43856   0.26640   0.75000 
C          C       0.26640   0.56144   0.75000 
C          C       0.73360   0.43856   0.75000 
C          C       0.52913   0.78704   0.75000 
C          C       0.47087   0.21296   0.75000 
C          C       0.21296   0.52913   0.75000 
C          C       0.78704   0.47087   0.75000 
N          N       0.55891   0.84017   0.75000 
N          N       0.44109   0.15983   0.75000 
N          N       0.15983   0.55891   0.75000 
N          N       0.84017   0.44109   0.75000 
C          C       0.52795   0.89262   0.75000 
C          C       0.47205   0.10738   0.75000 
C          C       0.10738   0.52795   0.75000 
C          C       0.89262   0.47205   0.75000 
Ni         Ni      0.50000   0.50000   0.75000 
H          H       0.91715   0.65890   0.76301 
H          H       0.99847   0.69440   0.75214 
H          H       0.91673   0.35573   0.76102 
H          H       0.65902   0.08027   0.73558 
H          H       0.69583   0.99995   0.73221 
H          H       0.35826   0.09349   0.76030 
H          H       0.39559   0.26719   0.76715 
H          H       0.60199   0.26801   0.73215 
H          H       0.26470   0.39701   0.74892 
H          H       0.26045   0.61116   0.75470 
H          H       0.08682   0.63527   0.73715 
H          H       0.07590   0.35296   0.74031 
H          H       0.00024   0.30381   0.74828 
H          H       0.39953   0.72861   0.76708 
H          H       0.35206   0.92809   0.76039 
H          H       0.30286   0.00349   0.76847 
H          H       0.64481   0.91643   0.73895 
H          H       0.60471   0.73385   0.73278 
H          H       0.73322   0.59717   0.75164 
H          H       0.73181   0.39667   0.74874 
