data_crystal
 
_cell_length_a    45.43670
_cell_length_b    45.43670
_cell_length_c    6.90380
_cell_angle_alpha 90.00000
_cell_angle_beta  90.00000
_cell_angle_gamma 120.00000
 
_symmetry_space_group_name_Hall 'P 1'
_symmetry_space_group_name_H-M  'P 1'
 
loop_
_symmetry_equiv_pos_as_xyz
 'x,y,z' 
 
loop_
_atom_site_label
_atom_site_type_symbol
_atom_site_fract_x
_atom_site_fract_y
_atom_site_fract_z
N          N       0.30934   0.67712   0.00000 
N          N       0.32288   0.63222   0.00000 
N          N       0.36778   0.69066   0.00000 
N          N       0.69066   0.32288   0.00000 
N          N       0.67712   0.36778   0.00000 
N          N       0.63222   0.30934   0.00000 
N          N       0.46065   0.53298   0.00000 
N          N       0.46702   0.92767   0.00000 
N          N       0.07233   0.53935   0.00000 
N          N       0.53935   0.46702   0.00000 
N          N       0.53298   0.07233   0.00000 
N          N       0.92767   0.46065   0.00000 
C          C       0.34271   0.70105   0.00000 
C          C       0.29895   0.64166   0.00000 
C          C       0.35834   0.65729   0.00000 
C          C       0.65729   0.29895   0.00000 
C          C       0.70105   0.35834   0.00000 
C          C       0.64166   0.34271   0.00000 
C          C       0.26469   0.61676   0.00000 
C          C       0.38324   0.64793   0.00000 
C          C       0.35207   0.73531   0.00000 
C          C       0.73531   0.38324   0.00000 
C          C       0.61676   0.35207   0.00000 
C          C       0.64793   0.26469   0.00000 
C          C       0.23869   0.62476   0.00000 
C          C       0.37524   0.61393   0.00000 
C          C       0.38607   0.76131   0.00000 
C          C       0.76131   0.37524   0.00000 
C          C       0.62476   0.38607   0.00000 
C          C       0.61393   0.23869   0.00000 
C          C       0.40066   0.60247   0.00000 
C          C       0.39753   0.79819   0.00000 
C          C       0.20181   0.59934   0.00000 
C          C       0.59934   0.39753   0.00000 
C          C       0.60247   0.20181   0.00000 
C          C       0.79819   0.40066   0.00000 
C          C       0.43601   0.62508   0.00000 
C          C       0.37492   0.81093   0.00000 
C          C       0.18907   0.56399   0.00000 
C          C       0.56399   0.37492   0.00000 
C          C       0.62508   0.18907   0.00000 
C          C       0.81093   0.43601   0.00000 
C          C       0.45868   0.61273   0.00000 
C          C       0.38727   0.84595   0.00000 
C          C       0.15405   0.54132   0.00000 
C          C       0.54132   0.38727   0.00000 
C          C       0.61273   0.15405   0.00000 
C          C       0.84595   0.45868   0.00000 
C          C       0.44665   0.57769   0.00000 
C          C       0.42231   0.86896   0.00000 
C          C       0.13104   0.55335   0.00000 
C          C       0.55335   0.42231   0.00000 
C          C       0.57769   0.13104   0.00000 
C          C       0.86896   0.44665   0.00000 
C          C       0.41144   0.55507   0.00000 
C          C       0.44493   0.85637   0.00000 
C          C       0.14363   0.58856   0.00000 
C          C       0.58856   0.44493   0.00000 
C          C       0.55507   0.14363   0.00000 
C          C       0.85637   0.41144   0.00000 
C          C       0.38876   0.56737   0.00000 
C          C       0.43263   0.82139   0.00000 
C          C       0.17861   0.61124   0.00000 
C          C       0.61124   0.43263   0.00000 
C          C       0.56737   0.17861   0.00000 
C          C       0.82139   0.38876   0.00000 
C          C       0.47117   0.56536   0.00000 
C          C       0.43464   0.90581   0.00000 
C          C       0.09419   0.52883   0.00000 
C          C       0.52883   0.43464   0.00000 
C          C       0.56536   0.09419   0.00000 
C          C       0.90581   0.47117   0.00000 
C          C       0.48121   0.51709   0.00000 
C          C       0.48291   0.96412   0.00000 
C          C       0.03588   0.51879   0.00000 
C          C       0.51879   0.48291   0.00000 
C          C       0.51709   0.03588   0.00000 
C          C       0.96412   0.48121   0.00000 
C          C       0.51700   0.53553   0.00000 
C          C       0.46447   0.98147   0.00000 
C          C       0.01853   0.48300   0.00000 
C          C       0.48300   0.46447   0.00000 
C          C       0.53553   0.01853   0.00000 
C          C       0.98147   0.51700   0.00000 
C          C       0.53543   0.51845   0.00000 
C          C       0.48155   0.01698   0.00000 
C          C       0.98302   0.46457   0.00000 
C          C       0.46457   0.48155   0.00000 
C          C       0.51845   0.98302   0.00000 
C          C       0.01698   0.53543   0.00000 
H          H       0.25878   0.59061   0.00000 
H          H       0.40939   0.66817   0.00000 
H          H       0.33183   0.74122   0.00000 
H          H       0.74122   0.40939   0.00000 
H          H       0.59061   0.33183   0.00000 
H          H       0.66817   0.25878   0.00000 
H          H       0.24560   0.65130   0.00000 
H          H       0.34870   0.59430   0.00000 
H          H       0.40570   0.75440   0.00000 
H          H       0.75440   0.34870   0.00000 
H          H       0.65130   0.40570   0.00000 
H          H       0.59430   0.24560   0.00000 
H          H       0.44664   0.65227   0.00000 
H          H       0.34773   0.79437   0.00000 
H          H       0.20563   0.55336   0.00000 
H          H       0.55336   0.34773   0.00000 
H          H       0.65227   0.20563   0.00000 
H          H       0.79437   0.44664   0.00000 
H          H       0.48573   0.63065   0.00000 
H          H       0.36935   0.85508   0.00000 
H          H       0.14492   0.51427   0.00000 
H          H       0.51427   0.36935   0.00000 
H          H       0.63065   0.14492   0.00000 
H          H       0.85508   0.48573   0.00000 
H          H       0.40137   0.52786   0.00000 
H          H       0.47214   0.87351   0.00000 
H          H       0.12649   0.59863   0.00000 
H          H       0.59863   0.47214   0.00000 
H          H       0.52786   0.12649   0.00000 
H          H       0.87351   0.40137   0.00000 
H          H       0.36174   0.54932   0.00000 
H          H       0.45068   0.81242   0.00000 
H          H       0.18758   0.63826   0.00000 
H          H       0.63826   0.45068   0.00000 
H          H       0.54932   0.18758   0.00000 
H          H       0.81242   0.36174   0.00000 
H          H       0.49793   0.58396   0.00000 
H          H       0.41604   0.91397   0.00000 
H          H       0.08603   0.50207   0.00000 
H          H       0.50207   0.41604   0.00000 
H          H       0.58396   0.08603   0.00000 
H          H       0.91397   0.49793   0.00000 
H          H       0.53112   0.56294   0.00000 
H          H       0.43706   0.96818   0.00000 
H          H       0.03182   0.46888   0.00000 
H          H       0.46888   0.43706   0.00000 
H          H       0.56294   0.03182   0.00000 
H          H       0.96818   0.53112   0.00000 
H          H       0.56293   0.53301   0.00000 
H          H       0.46699   0.02992   0.00000 
H          H       0.97008   0.43707   0.00000 
H          H       0.43707   0.46699   0.00000 
H          H       0.53301   0.97008   0.00000 
H          H       0.02992   0.56293   0.00000 
N          N       0.30934   0.67712   0.50000 
N          N       0.32288   0.63222   0.50000 
N          N       0.36778   0.69066   0.50000 
N          N       0.69066   0.32288   0.50000 
N          N       0.67712   0.36778   0.50000 
N          N       0.63222   0.30934   0.50000 
N          N       0.46065   0.53298   0.50000 
N          N       0.46702   0.92767   0.50000 
N          N       0.07233   0.53935   0.50000 
N          N       0.53935   0.46702   0.50000 
N          N       0.53298   0.07233   0.50000 
N          N       0.92767   0.46065   0.50000 
C          C       0.34271   0.70105   0.50000 
C          C       0.29895   0.64166   0.50000 
C          C       0.35834   0.65729   0.50000 
C          C       0.65729   0.29895   0.50000 
C          C       0.70105   0.35834   0.50000 
C          C       0.64166   0.34271   0.50000 
C          C       0.26469   0.61676   0.50000 
C          C       0.38324   0.64793   0.50000 
C          C       0.35207   0.73531   0.50000 
C          C       0.73531   0.38324   0.50000 
C          C       0.61676   0.35207   0.50000 
C          C       0.64793   0.26469   0.50000 
C          C       0.23869   0.62476   0.50000 
C          C       0.37524   0.61393   0.50000 
C          C       0.38607   0.76131   0.50000 
C          C       0.76131   0.37524   0.50000 
C          C       0.62476   0.38607   0.50000 
C          C       0.61393   0.23869   0.50000 
C          C       0.40066   0.60247   0.50000 
C          C       0.39753   0.79819   0.50000 
C          C       0.20181   0.59934   0.50000 
C          C       0.59934   0.39753   0.50000 
C          C       0.60247   0.20181   0.50000 
C          C       0.79819   0.40066   0.50000 
C          C       0.43601   0.62508   0.50000 
C          C       0.37492   0.81093   0.50000 
C          C       0.18907   0.56399   0.50000 
C          C       0.56399   0.37492   0.50000 
C          C       0.62508   0.18907   0.50000 
C          C       0.81093   0.43601   0.50000 
C          C       0.45868   0.61273   0.50000 
C          C       0.38727   0.84595   0.50000 
C          C       0.15405   0.54132   0.50000 
C          C       0.54132   0.38727   0.50000 
C          C       0.61273   0.15405   0.50000 
C          C       0.84595   0.45868   0.50000 
C          C       0.44665   0.57769   0.50000 
C          C       0.42231   0.86896   0.50000 
C          C       0.13104   0.55335   0.50000 
C          C       0.55335   0.42231   0.50000 
C          C       0.57769   0.13104   0.50000 
C          C       0.86896   0.44665   0.50000 
C          C       0.41144   0.55507   0.50000 
C          C       0.44493   0.85637   0.50000 
C          C       0.14363   0.58856   0.50000 
C          C       0.58856   0.44493   0.50000 
C          C       0.55507   0.14363   0.50000 
C          C       0.85637   0.41144   0.50000 
C          C       0.38876   0.56737   0.50000 
C          C       0.43263   0.82139   0.50000 
C          C       0.17861   0.61124   0.50000 
C          C       0.61124   0.43263   0.50000 
C          C       0.56737   0.17861   0.50000 
C          C       0.82139   0.38876   0.50000 
C          C       0.47117   0.56536   0.50000 
C          C       0.43464   0.90581   0.50000 
C          C       0.09419   0.52883   0.50000 
C          C       0.52883   0.43464   0.50000 
C          C       0.56536   0.09419   0.50000 
C          C       0.90581   0.47117   0.50000 
C          C       0.48121   0.51709   0.50000 
C          C       0.48291   0.96412   0.50000 
C          C       0.03588   0.51879   0.50000 
C          C       0.51879   0.48291   0.50000 
C          C       0.51709   0.03588   0.50000 
C          C       0.96412   0.48121   0.50000 
C          C       0.51700   0.53553   0.50000 
C          C       0.46447   0.98147   0.50000 
C          C       0.01853   0.48300   0.50000 
C          C       0.48300   0.46447   0.50000 
C          C       0.53553   0.01853   0.50000 
C          C       0.98147   0.51700   0.50000 
C          C       0.53543   0.51845   0.50000 
C          C       0.48155   0.01698   0.50000 
C          C       0.98302   0.46457   0.50000 
C          C       0.46457   0.48155   0.50000 
C          C       0.51845   0.98302   0.50000 
C          C       0.01698   0.53543   0.50000 
H          H       0.25878   0.59061   0.50000 
H          H       0.40939   0.66817   0.50000 
H          H       0.33183   0.74122   0.50000 
H          H       0.74122   0.40939   0.50000 
H          H       0.59061   0.33183   0.50000 
H          H       0.66817   0.25878   0.50000 
H          H       0.24560   0.65130   0.50000 
H          H       0.34870   0.59430   0.50000 
H          H       0.40570   0.75440   0.50000 
H          H       0.75440   0.34870   0.50000 
H          H       0.65130   0.40570   0.50000 
H          H       0.59430   0.24560   0.50000 
H          H       0.44664   0.65227   0.50000 
H          H       0.34773   0.79437   0.50000 
H          H       0.20563   0.55336   0.50000 
H          H       0.55336   0.34773   0.50000 
H          H       0.65227   0.20563   0.50000 
H          H       0.79437   0.44664   0.50000 
H          H       0.48573   0.63065   0.50000 
H          H       0.36935   0.85508   0.50000 
H          H       0.14492   0.51427   0.50000 
H          H       0.51427   0.36935   0.50000 
H          H       0.63065   0.14492   0.50000 
H          H       0.85508   0.48573   0.50000 
H          H       0.40137   0.52786   0.50000 
H          H       0.47214   0.87351   0.50000 
H          H       0.12649   0.59863   0.50000 
H          H       0.59863   0.47214   0.50000 
H          H       0.52786   0.12649   0.50000 
H          H       0.87351   0.40137   0.50000 
H          H       0.36174   0.54932   0.50000 
H          H       0.45068   0.81242   0.50000 
H          H       0.18758   0.63826   0.50000 
H          H       0.63826   0.45068   0.50000 
H          H       0.54932   0.18758   0.50000 
H          H       0.81242   0.36174   0.50000 
H          H       0.49793   0.58396   0.50000 
H          H       0.41604   0.91397   0.50000 
H          H       0.08603   0.50207   0.50000 
H          H       0.50207   0.41604   0.50000 
H          H       0.58396   0.08603   0.50000 
H          H       0.91397   0.49793   0.50000 
H          H       0.53112   0.56294   0.50000 
H          H       0.43706   0.96818   0.50000 
H          H       0.03182   0.46888   0.50000 
H          H       0.46888   0.43706   0.50000 
H          H       0.56294   0.03182   0.50000 
H          H       0.96818   0.53112   0.50000 
H          H       0.56293   0.53301   0.50000 
H          H       0.46699   0.02992   0.50000 
H          H       0.97008   0.43707   0.50000 
H          H       0.43707   0.46699   0.50000 
H          H       0.53301   0.97008   0.50000 
H          H       0.02992   0.56293   0.50000 
