data_crystal
 
_cell_length_a    39.38570
_cell_length_b    39.38570
_cell_length_c    5.49870
_cell_angle_alpha 90.00000
_cell_angle_beta  90.00000
_cell_angle_gamma 90.00000
 
_space_group_name_Hall 'P 1'
_space_group_name_H-M_alt  'P 1'
 
loop_
_symmetry_equiv_pos_as_xyz
 'x,y,z' 
 
loop_
_atom_site_label
_atom_site_type_symbol
_atom_site_fract_x
_atom_site_fract_y
_atom_site_fract_z
C          C       0.54255   0.52587   0.81830 
C          C       0.95745   0.97413   0.31830 
C          C       0.47413   0.04255   0.06830 
C          C       0.02587   0.45745   0.56830 
C          C       0.45745   0.97413   0.43170 
C          C       0.04255   0.52587   0.93170 
C          C       0.52587   0.45745   0.18170 
C          C       0.97413   0.04255   0.68170 
C          C       0.04255   0.02587   0.31830 
C          C       0.45745   0.47413   0.81830 
C          C       0.97413   0.54255   0.56830 
C          C       0.52587   0.95745   0.06830 
C          C       0.95745   0.47413   0.93170 
C          C       0.54255   0.02587   0.43170 
C          C       0.02587   0.95745   0.68170 
C          C       0.47413   0.54255   0.18170 
C          C       0.57289   0.52735   0.95827 
C          C       0.92711   0.97265   0.45827 
C          C       0.47265   0.07289   0.20827 
C          C       0.02735   0.42711   0.70827 
C          C       0.42711   0.97265   0.29173 
C          C       0.07289   0.52735   0.79173 
C          C       0.52735   0.42711   0.04173 
C          C       0.97265   0.07289   0.54173 
C          C       0.07289   0.02735   0.45827 
C          C       0.42711   0.47265   0.95827 
C          C       0.97265   0.57289   0.70827 
C          C       0.52735   0.92711   0.20827 
C          C       0.92711   0.47265   0.79173 
C          C       0.57289   0.02735   0.29173 
C          C       0.02735   0.92711   0.54173 
C          C       0.47265   0.57289   0.04173 
C          C       0.59515   0.49980   0.97802 
C          C       0.90485   0.00020   0.47802 
C          C       0.50020   0.09515   0.22802 
C          C       0.99980   0.40485   0.72802 
C          C       0.40485   0.00020   0.27198 
C          C       0.09515   0.49980   0.77198 
C          C       0.49980   0.40485   0.02198 
C          C       0.00020   0.09515   0.52198 
C          C       0.09515   0.99980   0.47802 
C          C       0.40485   0.50020   0.97802 
C          C       0.00020   0.59515   0.72802 
C          C       0.49980   0.90485   0.22802 
C          C       0.90485   0.50020   0.77198 
C          C       0.59515   0.99980   0.27198 
C          C       0.99980   0.90485   0.52198 
C          C       0.50020   0.59515   0.02198 
C          C       0.58765   0.47261   0.81961 
C          C       0.91235   0.02739   0.31961 
C          C       0.52739   0.08765   0.06961 
C          C       0.97261   0.41235   0.56961 
C          C       0.41235   0.02739   0.43039 
C          C       0.08765   0.47261   0.93039 
C          C       0.47261   0.41235   0.18039 
C          C       0.02739   0.08765   0.68039 
C          C       0.08765   0.97261   0.31961 
C          C       0.41235   0.52739   0.81961 
C          C       0.02739   0.58765   0.56961 
C          C       0.47261   0.91235   0.06961 
C          C       0.91235   0.52739   0.93039 
C          C       0.58765   0.97261   0.43039 
C          C       0.97261   0.91235   0.68039 
C          C       0.52739   0.58765   0.18039 
C          C       0.55824   0.47198   0.66816 
C          C       0.94176   0.02802   0.16816 
C          C       0.52802   0.05824   0.91816 
C          C       0.97198   0.44176   0.41816 
C          C       0.44176   0.02802   0.58184 
C          C       0.05824   0.47198   0.08184 
C          C       0.47198   0.44176   0.33184 
C          C       0.02802   0.05824   0.83184 
C          C       0.05824   0.97198   0.16816 
C          C       0.44176   0.52802   0.66816 
C          C       0.02802   0.55824   0.41816 
C          C       0.47198   0.94176   0.91816 
C          C       0.94176   0.52802   0.08184 
C          C       0.55824   0.97198   0.58184 
C          C       0.97198   0.94176   0.83184 
C          C       0.52802   0.55824   0.33184 
C          C       0.53361   0.49842   0.66829 
C          C       0.96639   0.00158   0.16829 
C          C       0.50158   0.03361   0.91829 
C          C       0.99842   0.46639   0.41829 
C          C       0.46639   0.00158   0.58171 
C          C       0.03361   0.49842   0.08171 
C          C       0.49842   0.46639   0.33171 
C          C       0.00158   0.03361   0.83171 
C          C       0.03361   0.99842   0.16829 
C          C       0.46639   0.50158   0.66829 
C          C       0.00158   0.53361   0.41829 
C          C       0.49842   0.96639   0.91829 
C          C       0.96639   0.50158   0.08171 
C          C       0.53361   0.99842   0.58171 
C          C       0.99842   0.96639   0.83171 
C          C       0.50158   0.53361   0.33171 
C          C       0.63298   0.46705   0.28801 
C          C       0.86702   0.03295   0.78801 
C          C       0.53295   0.13298   0.53801 
C          C       0.96705   0.36702   0.03801 
C          C       0.36702   0.03295   0.96199 
C          C       0.13298   0.46705   0.46199 
C          C       0.46705   0.36702   0.71199 
C          C       0.03295   0.13298   0.21199 
C          C       0.13298   0.96705   0.78801 
C          C       0.36702   0.53295   0.28801 
C          C       0.03295   0.63298   0.03801 
C          C       0.46705   0.86702   0.53801 
C          C       0.86702   0.53295   0.46199 
C          C       0.63298   0.96705   0.96199 
C          C       0.96705   0.86702   0.21199 
C          C       0.53295   0.63298   0.71199 
C          C       0.65795   0.46543   0.47783 
C          C       0.84205   0.03457   0.97783 
C          C       0.53457   0.15795   0.72783 
C          C       0.96543   0.34205   0.22783 
C          C       0.34205   0.03457   0.77217 
C          C       0.15795   0.46543   0.27217 
C          C       0.46543   0.34205   0.52217 
C          C       0.03457   0.15795   0.02217 
C          C       0.15795   0.96543   0.97783 
C          C       0.34205   0.53457   0.47783 
C          C       0.03457   0.65795   0.22783 
C          C       0.46543   0.84205   0.72783 
C          C       0.84205   0.53457   0.27217 
C          C       0.65795   0.96543   0.77217 
C          C       0.96543   0.84205   0.02217 
C          C       0.53457   0.65795   0.52217 
C          C       0.66774   0.49586   0.60406 
C          C       0.83226   0.00414   0.10406 
C          C       0.50414   0.16774   0.85406 
C          C       0.99586   0.33226   0.35406 
C          C       0.33226   0.00414   0.64594 
C          C       0.16774   0.49586   0.14594 
C          C       0.49586   0.33226   0.39594 
C          C       0.00414   0.16774   0.89594 
C          C       0.16774   0.99586   0.10406 
C          C       0.33226   0.50414   0.60406 
C          C       0.00414   0.66774   0.35406 
C          C       0.49586   0.83226   0.85406 
C          C       0.83226   0.50414   0.14594 
C          C       0.66774   0.99586   0.64594 
C          C       0.99586   0.83226   0.89594 
C          C       0.50414   0.66774   0.39594 
C          C       0.65473   0.52763   0.51240 
C          C       0.84527   0.97237   0.01240 
C          C       0.47237   0.15473   0.76240 
C          C       0.02763   0.34527   0.26240 
C          C       0.34527   0.97237   0.73760 
C          C       0.15473   0.52763   0.23760 
C          C       0.52763   0.34527   0.48760 
C          C       0.97237   0.15473   0.98760 
C          C       0.15473   0.02763   0.01240 
C          C       0.34527   0.47237   0.51240 
C          C       0.97237   0.65473   0.26240 
C          C       0.52763   0.84527   0.76240 
C          C       0.84527   0.47237   0.23760 
C          C       0.65473   0.02763   0.73760 
C          C       0.02763   0.84527   0.98760 
C          C       0.47237   0.65473   0.48760 
C          C       0.63529   0.52781   0.29158 
C          C       0.86471   0.97219   0.79158 
C          C       0.47219   0.13529   0.54158 
C          C       0.02781   0.36471   0.04158 
C          C       0.36471   0.97219   0.95842 
C          C       0.13529   0.52781   0.45842 
C          C       0.52781   0.36471   0.70842 
C          C       0.97219   0.13529   0.20842 
C          C       0.13529   0.02781   0.79158 
C          C       0.36471   0.47219   0.29158 
C          C       0.97219   0.63529   0.04158 
C          C       0.52781   0.86471   0.54158 
C          C       0.86471   0.47219   0.45842 
C          C       0.63529   0.02781   0.95842 
C          C       0.02781   0.86471   0.20842 
C          C       0.47219   0.63529   0.70842 
C          C       0.62221   0.49808   0.18298 
C          C       0.87779   0.00192   0.68298 
C          C       0.50192   0.12221   0.43298 
C          C       0.99808   0.37779   0.93298 
C          C       0.37779   0.00192   0.06702 
C          C       0.12221   0.49808   0.56702 
C          C       0.49808   0.37779   0.81702 
C          C       0.00192   0.12221   0.31702 
C          C       0.12221   0.99808   0.68298 
C          C       0.37779   0.50192   0.18298 
C          C       0.00192   0.62221   0.93298 
C          C       0.49808   0.87779   0.43298 
C          C       0.87779   0.50192   0.56702 
C          C       0.62221   0.99808   0.06702 
C          C       0.99808   0.87779   0.31702 
C          C       0.50192   0.62221   0.81702 
C          C       0.70940   0.51375   0.93275 
C          C       0.79060   0.98625   0.43275 
C          C       0.48625   0.20940   0.18275 
C          C       0.01375   0.29060   0.68275 
C          C       0.29060   0.98625   0.31725 
C          C       0.20940   0.51375   0.81725 
C          C       0.51375   0.29060   0.06725 
C          C       0.98625   0.20940   0.56725 
C          C       0.20940   0.01375   0.43275 
C          C       0.29060   0.48625   0.93275 
C          C       0.98625   0.70940   0.68275 
C          C       0.51375   0.79060   0.18275 
C          C       0.79060   0.48625   0.81725 
C          C       0.70940   0.01375   0.31725 
C          C       0.01375   0.79060   0.56725 
C          C       0.48625   0.70940   0.06725 
N          N       0.68858   0.49222   0.82753 
N          N       0.81142   0.00778   0.32753 
N          N       0.50778   0.18858   0.07753 
N          N       0.99222   0.31142   0.57753 
N          N       0.31142   0.00778   0.42247 
N          N       0.18858   0.49222   0.92247 
N          N       0.49222   0.31142   0.17247 
N          N       0.00778   0.18858   0.67247 
N          N       0.18858   0.99222   0.32753 
N          N       0.31142   0.50778   0.82753 
N          N       0.00778   0.68858   0.57753 
N          N       0.49222   0.81142   0.07753 
N          N       0.81142   0.50778   0.92247 
N          N       0.68858   0.99222   0.42247 
N          N       0.99222   0.81142   0.67247 
N          N       0.50778   0.68858   0.17247 
C          C       0.74353   0.53297   0.29846 
C          C       0.75647   0.96703   0.79846 
C          C       0.46703   0.24353   0.54846 
C          C       0.03297   0.25647   0.04846 
C          C       0.25647   0.96703   0.95154 
C          C       0.24353   0.53297   0.45154 
C          C       0.53297   0.25647   0.70154 
C          C       0.96703   0.24353   0.20154 
C          C       0.24353   0.03297   0.79846 
C          C       0.25647   0.46703   0.29846 
C          C       0.96703   0.74353   0.04846 
C          C       0.53297   0.75647   0.54846 
C          C       0.75647   0.46703   0.45154 
C          C       0.74353   0.03297   0.95154 
C          C       0.03297   0.75647   0.20154 
C          C       0.46703   0.74353   0.70154 
C          C       0.73669   0.47309   0.23929 
C          C       0.76331   0.02691   0.73929 
C          C       0.52691   0.23669   0.48929 
C          C       0.97309   0.26331   0.98929 
C          C       0.26331   0.02691   0.01071 
C          C       0.23669   0.47309   0.51071 
C          C       0.47309   0.26331   0.76071 
C          C       0.02691   0.23669   0.26071 
C          C       0.23669   0.97309   0.73929 
C          C       0.26331   0.52691   0.23929 
C          C       0.02691   0.73669   0.98929 
C          C       0.47309   0.76331   0.48929 
C          C       0.76331   0.52691   0.51071 
C          C       0.73669   0.97309   0.01071 
C          C       0.97309   0.76331   0.26071 
C          C       0.52691   0.73669   0.76071 
C          C       0.72936   0.50617   0.16205 
C          C       0.77064   0.99383   0.66205 
C          C       0.49383   0.22936   0.41205 
C          C       0.00617   0.27064   0.91205 
C          C       0.27064   0.99383   0.08795 
C          C       0.22936   0.50617   0.58795 
C          C       0.50617   0.27064   0.83795 
C          C       0.99383   0.22936   0.33795 
C          C       0.22936   0.00617   0.66205 
C          C       0.27064   0.49383   0.16205 
C          C       0.99383   0.72936   0.91205 
C          C       0.50617   0.77064   0.41205 
C          C       0.77064   0.49383   0.58795 
C          C       0.72936   0.00617   0.08795 
C          C       0.00617   0.77064   0.33795 
C          C       0.49383   0.72936   0.83795 
H          H       0.52675   0.54760   0.80853 
H          H       0.97325   0.95240   0.30853 
H          H       0.45240   0.02675   0.05853 
H          H       0.04760   0.47325   0.55853 
H          H       0.47325   0.95240   0.44147 
H          H       0.02675   0.54760   0.94147 
H          H       0.54760   0.47325   0.19147 
H          H       0.95240   0.02675   0.69147 
H          H       0.02675   0.04760   0.30853 
H          H       0.47325   0.45240   0.80853 
H          H       0.95240   0.52675   0.55853 
H          H       0.54760   0.97325   0.05853 
H          H       0.97325   0.45240   0.94147 
H          H       0.52675   0.04760   0.44147 
H          H       0.04760   0.97325   0.69147 
H          H       0.45240   0.52675   0.19147 
H          H       0.57890   0.55053   0.05148 
H          H       0.92110   0.94947   0.55148 
H          H       0.44947   0.07890   0.30148 
H          H       0.05053   0.42110   0.80148 
H          H       0.42110   0.94947   0.19852 
H          H       0.07890   0.55053   0.69852 
H          H       0.55053   0.42110   0.94852 
H          H       0.94947   0.07890   0.44852 
H          H       0.07890   0.05053   0.55148 
H          H       0.42110   0.44947   0.05148 
H          H       0.94947   0.57890   0.80148 
H          H       0.55053   0.92110   0.30148 
H          H       0.92110   0.44947   0.69852 
H          H       0.57890   0.05053   0.19852 
H          H       0.05053   0.92110   0.44852 
H          H       0.44947   0.57890   0.94852 
H          H       0.60268   0.45028   0.82668 
H          H       0.89732   0.04972   0.32668 
H          H       0.54972   0.10268   0.07668 
H          H       0.95028   0.39732   0.57668 
H          H       0.39732   0.04972   0.42332 
H          H       0.10268   0.45028   0.92332 
H          H       0.45028   0.39732   0.17332 
H          H       0.04972   0.10268   0.67332 
H          H       0.10268   0.95028   0.32668 
H          H       0.39732   0.54972   0.82668 
H          H       0.04972   0.60268   0.57668 
H          H       0.45028   0.89732   0.07668 
H          H       0.89732   0.54972   0.92332 
H          H       0.60268   0.95028   0.42332 
H          H       0.95028   0.89732   0.67332 
H          H       0.54972   0.60268   0.17332 
H          H       0.55394   0.44851   0.57333 
H          H       0.94606   0.05149   0.07333 
H          H       0.55149   0.05394   0.82333 
H          H       0.94851   0.44606   0.32333 
H          H       0.44606   0.05149   0.67667 
H          H       0.05394   0.44851   0.17667 
H          H       0.44851   0.44606   0.42667 
H          H       0.05149   0.05394   0.92667 
H          H       0.05394   0.94851   0.07333 
H          H       0.44606   0.55149   0.57333 
H          H       0.05149   0.55394   0.32333 
H          H       0.44851   0.94606   0.82333 
H          H       0.94606   0.55149   0.17667 
H          H       0.55394   0.94851   0.67667 
H          H       0.94851   0.94606   0.92667 
H          H       0.55149   0.55394   0.42667 
H          H       0.62142   0.44385   0.22466 
H          H       0.87858   0.05615   0.72466 
H          H       0.55615   0.12142   0.47466 
H          H       0.94385   0.37858   0.97466 
H          H       0.37858   0.05615   0.02534 
H          H       0.12142   0.44385   0.52534 
H          H       0.44385   0.37858   0.77534 
H          H       0.05615   0.12142   0.27534 
H          H       0.12142   0.94385   0.72466 
H          H       0.37858   0.55615   0.22466 
H          H       0.05615   0.62142   0.97466 
H          H       0.44385   0.87858   0.47466 
H          H       0.87858   0.55615   0.52534 
H          H       0.62142   0.94385   0.02534 
H          H       0.94385   0.87858   0.27534 
H          H       0.55615   0.62142   0.77534 
C          C       0.67440   0.43125   0.55202 
C          C       0.82560   0.06875   0.05202 
C          C       0.56875   0.17440   0.80202 
C          C       0.93125   0.32560   0.30202 
C          C       0.32560   0.06875   0.69798 
C          C       0.17440   0.43125   0.19798 
C          C       0.43125   0.32560   0.44798 
C          C       0.06875   0.17440   0.94798 
C          C       0.17440   0.93125   0.05202 
C          C       0.32560   0.56875   0.55202 
C          C       0.06875   0.67440   0.30202 
C          C       0.43125   0.82560   0.80202 
C          C       0.82560   0.56875   0.19798 
C          C       0.67440   0.93125   0.69798 
C          C       0.93125   0.82560   0.94798 
C          C       0.56875   0.67440   0.44798 
C          C       0.65714   0.56145   0.65296 
C          C       0.84286   0.93855   0.15296 
C          C       0.43855   0.15714   0.90296 
C          C       0.06145   0.34286   0.40296 
C          C       0.34286   0.93855   0.59704 
C          C       0.15714   0.56145   0.09704 
C          C       0.56145   0.34286   0.34704 
C          C       0.93855   0.15714   0.84704 
C          C       0.15714   0.06145   0.15296 
C          C       0.34286   0.43855   0.65296 
C          C       0.93855   0.65714   0.40296 
C          C       0.56145   0.84286   0.90296 
C          C       0.84286   0.43855   0.09704 
C          C       0.65714   0.06145   0.59704 
C          C       0.06145   0.84286   0.84704 
C          C       0.43855   0.65714   0.34704 
H          H       0.62834   0.55209   0.21514 
H          H       0.87166   0.94791   0.71514 
H          H       0.44791   0.12834   0.46514 
H          H       0.05209   0.37166   0.96514 
H          H       0.37166   0.94791   0.03486 
H          H       0.12834   0.55209   0.53486 
H          H       0.55209   0.37166   0.78486 
H          H       0.94791   0.12834   0.28486 
H          H       0.12834   0.05209   0.71514 
H          H       0.37166   0.44791   0.21514 
H          H       0.94791   0.62834   0.96514 
H          H       0.55209   0.87166   0.46514 
H          H       0.87166   0.44791   0.53486 
H          H       0.62834   0.05209   0.03486 
H          H       0.05209   0.87166   0.28486 
H          H       0.44791   0.62834   0.78486 
H          H       0.71418   0.53793   0.85117 
H          H       0.78582   0.96207   0.35117 
H          H       0.46207   0.21418   0.10117 
H          H       0.03793   0.28582   0.60117 
H          H       0.28582   0.96207   0.39883 
H          H       0.21418   0.53793   0.89883 
H          H       0.53793   0.28582   0.14883 
H          H       0.96207   0.21418   0.64883 
H          H       0.21418   0.03793   0.35117 
H          H       0.28582   0.46207   0.85117 
H          H       0.96207   0.71418   0.60117 
H          H       0.53793   0.78582   0.10117 
H          H       0.78582   0.46207   0.89883 
H          H       0.71418   0.03793   0.39883 
H          H       0.03793   0.78582   0.64883 
H          H       0.46207   0.71418   0.14883 
H          H       0.73920   0.55886   0.24008 
H          H       0.76080   0.94114   0.74008 
H          H       0.44114   0.23920   0.49008 
H          H       0.05886   0.26080   0.99008 
H          H       0.26080   0.94114   0.00992 
H          H       0.23920   0.55886   0.50992 
H          H       0.55886   0.26080   0.75992 
H          H       0.94114   0.23920   0.25992 
H          H       0.23920   0.05886   0.74008 
H          H       0.26080   0.44114   0.24008 
H          H       0.94114   0.73920   0.99008 
H          H       0.55886   0.76080   0.49008 
H          H       0.76080   0.44114   0.50992 
H          H       0.73920   0.05886   0.00992 
H          H       0.05886   0.76080   0.25992 
H          H       0.44114   0.73920   0.75992 
H          H       0.72863   0.45210   0.12728 
H          H       0.77137   0.04790   0.62728 
H          H       0.54790   0.22863   0.37728 
H          H       0.95210   0.27137   0.87728 
H          H       0.27137   0.04790   0.12272 
H          H       0.22863   0.45210   0.62272 
H          H       0.45210   0.27137   0.87272 
H          H       0.04790   0.22863   0.37272 
H          H       0.22863   0.95210   0.62728 
H          H       0.27137   0.54790   0.12728 
H          H       0.04790   0.72863   0.87728 
H          H       0.45210   0.77137   0.37728 
H          H       0.77137   0.54790   0.62272 
H          H       0.72863   0.95210   0.12272 
H          H       0.95210   0.77137   0.37272 
H          H       0.54790   0.72863   0.87272 
C          C       0.68373   0.58546   0.54040 
C          C       0.81627   0.91454   0.04040 
C          C       0.41454   0.18373   0.79040 
C          C       0.08546   0.31627   0.29040 
C          C       0.31627   0.91454   0.70960 
C          C       0.18373   0.58546   0.20960 
C          C       0.58546   0.31627   0.45960 
C          C       0.91454   0.18373   0.95960 
C          C       0.18373   0.08546   0.04040 
C          C       0.31627   0.41454   0.54040 
C          C       0.91454   0.68373   0.29040 
C          C       0.58546   0.81627   0.79040 
C          C       0.81627   0.41454   0.20960 
C          C       0.68373   0.08546   0.70960 
C          C       0.08546   0.81627   0.95960 
C          C       0.41454   0.68373   0.45960 
H          H       0.66337   0.55682   0.84815 
H          H       0.83663   0.94318   0.34815 
H          H       0.44318   0.16337   0.09815 
H          H       0.05682   0.33663   0.59815 
H          H       0.33663   0.94318   0.40185 
H          H       0.16337   0.55682   0.90185 
H          H       0.55682   0.33663   0.15185 
H          H       0.94318   0.16337   0.65185 
H          H       0.16337   0.05682   0.34815 
H          H       0.33663   0.44318   0.84815 
H          H       0.94318   0.66337   0.59815 
H          H       0.55682   0.83663   0.09815 
H          H       0.83663   0.44318   0.90185 
H          H       0.66337   0.05682   0.40185 
H          H       0.05682   0.83663   0.65185 
H          H       0.44318   0.66337   0.15185 
C          C       0.62297   0.58028   0.66276 
C          C       0.87703   0.91972   0.16276 
C          C       0.41972   0.12297   0.91276 
C          C       0.08028   0.37703   0.41276 
C          C       0.37703   0.91972   0.58724 
C          C       0.12297   0.58028   0.08724 
C          C       0.58028   0.37703   0.33724 
C          C       0.91972   0.12297   0.83724 
C          C       0.12297   0.08028   0.16276 
C          C       0.37703   0.41972   0.66276 
C          C       0.91972   0.62297   0.41276 
C          C       0.58028   0.87703   0.91276 
C          C       0.87703   0.41972   0.08724 
C          C       0.62297   0.08028   0.58724 
C          C       0.08028   0.87703   0.83724 
C          C       0.41972   0.62297   0.33724 
C          C       0.67720   0.40419   0.35045 
C          C       0.82280   0.09581   0.85045 
C          C       0.59581   0.17720   0.60045 
C          C       0.90419   0.32280   0.10045 
C          C       0.32280   0.09581   0.89955 
C          C       0.17720   0.40419   0.39955 
C          C       0.40419   0.32280   0.64955 
C          C       0.09581   0.17720   0.14955 
C          C       0.17720   0.90419   0.85045 
C          C       0.32280   0.59581   0.35045 
C          C       0.09581   0.67720   0.10045 
C          C       0.40419   0.82280   0.60045 
C          C       0.82280   0.59581   0.39955 
C          C       0.67720   0.90419   0.89955 
C          C       0.90419   0.82280   0.14955 
C          C       0.59581   0.67720   0.64955 
C          C       0.65753   0.41519   0.77326 
C          C       0.84247   0.08481   0.27326 
C          C       0.58481   0.15753   0.02326 
C          C       0.91519   0.34247   0.52326 
C          C       0.34247   0.08481   0.47674 
C          C       0.15753   0.41519   0.97674 
C          C       0.41519   0.34247   0.22674 
C          C       0.08481   0.15753   0.72674 
C          C       0.15753   0.91519   0.27326 
C          C       0.34247   0.58481   0.77326 
C          C       0.08481   0.65753   0.52326 
C          C       0.41519   0.84247   0.02326 
C          C       0.84247   0.58481   0.97674 
C          C       0.65753   0.91519   0.47674 
C          C       0.91519   0.84247   0.72674 
C          C       0.58481   0.65753   0.22674 
H          H       0.70083   0.43648   0.60951 
H          H       0.79917   0.06352   0.10951 
H          H       0.56352   0.20083   0.85951 
H          H       0.93648   0.29917   0.35951 
H          H       0.29917   0.06352   0.64049 
H          H       0.20083   0.43648   0.14049 
H          H       0.43648   0.29917   0.39049 
H          H       0.06352   0.20083   0.89049 
H          H       0.20083   0.93648   0.10951 
H          H       0.29917   0.56352   0.60951 
H          H       0.06352   0.70083   0.35951 
H          H       0.43648   0.79917   0.85951 
H          H       0.79917   0.56352   0.14049 
H          H       0.70083   0.93648   0.64049 
H          H       0.93648   0.79917   0.89049 
H          H       0.56352   0.70083   0.39049 
H          H       0.69322   0.41313   0.19870 
H          H       0.80678   0.08687   0.69870 
H          H       0.58687   0.19322   0.44870 
H          H       0.91313   0.30678   0.94870 
H          H       0.30678   0.08687   0.05130 
H          H       0.19322   0.41313   0.55130 
H          H       0.41313   0.30678   0.80130 
H          H       0.08687   0.19322   0.30130 
H          H       0.19322   0.91313   0.69870 
H          H       0.30678   0.58687   0.19870 
H          H       0.08687   0.69322   0.94870 
H          H       0.41313   0.80678   0.44870 
H          H       0.80678   0.58687   0.55130 
H          H       0.69322   0.91313   0.05130 
H          H       0.91313   0.80678   0.30130 
H          H       0.58687   0.69322   0.80130 
H          H       0.65199   0.39627   0.28192 
H          H       0.84801   0.10373   0.78192 
H          H       0.60373   0.15199   0.53192 
H          H       0.89627   0.34801   0.03192 
H          H       0.34801   0.10373   0.96808 
H          H       0.15199   0.39627   0.46808 
H          H       0.39627   0.34801   0.71808 
H          H       0.10373   0.15199   0.21808 
H          H       0.15199   0.89627   0.78192 
H          H       0.34801   0.60373   0.28192 
H          H       0.10373   0.65199   0.03192 
H          H       0.39627   0.84801   0.53192 
H          H       0.84801   0.60373   0.46808 
H          H       0.65199   0.89627   0.96808 
H          H       0.89627   0.84801   0.21808 
H          H       0.60373   0.65199   0.71808 
H          H       0.69002   0.38119   0.42376 
H          H       0.80998   0.11881   0.92376 
H          H       0.61881   0.19002   0.67376 
H          H       0.88119   0.30998   0.17376 
H          H       0.30998   0.11881   0.82624 
H          H       0.19002   0.38119   0.32624 
H          H       0.38119   0.30998   0.57624 
H          H       0.11881   0.19002   0.07624 
H          H       0.19002   0.88119   0.92376 
H          H       0.30998   0.61881   0.42376 
H          H       0.11881   0.69002   0.17376 
H          H       0.38119   0.80998   0.67376 
H          H       0.80998   0.61881   0.32624 
H          H       0.69002   0.88119   0.82624 
H          H       0.88119   0.80998   0.07624 
H          H       0.61881   0.69002   0.57624 
H          H       0.67221   0.39270   0.83499 
H          H       0.82779   0.10730   0.33499 
H          H       0.60730   0.17221   0.08499 
H          H       0.89270   0.32779   0.58499 
H          H       0.32779   0.10730   0.41501 
H          H       0.17221   0.39270   0.91501 
H          H       0.39270   0.32779   0.16501 
H          H       0.10730   0.17221   0.66501 
H          H       0.17221   0.89270   0.33499 
H          H       0.32779   0.60730   0.83499 
H          H       0.10730   0.67221   0.58499 
H          H       0.39270   0.82779   0.08499 
H          H       0.82779   0.60730   0.91501 
H          H       0.67221   0.89270   0.41501 
H          H       0.89270   0.82779   0.66501 
H          H       0.60730   0.67221   0.16501 
H          H       0.63167   0.40648   0.73099 
H          H       0.86833   0.09352   0.23099 
H          H       0.59352   0.13167   0.98099 
H          H       0.90648   0.36833   0.48099 
H          H       0.36833   0.09352   0.51901 
H          H       0.13167   0.40648   0.01901 
H          H       0.40648   0.36833   0.26901 
H          H       0.09352   0.13167   0.76901 
H          H       0.13167   0.90648   0.23099 
H          H       0.36833   0.59352   0.73099 
H          H       0.09352   0.63167   0.48099 
H          H       0.40648   0.86833   0.98099 
H          H       0.86833   0.59352   0.01901 
H          H       0.63167   0.90648   0.51901 
H          H       0.90648   0.86833   0.76901 
H          H       0.59352   0.63167   0.26901 
H          H       0.65708   0.43406   0.92108 
H          H       0.84292   0.06594   0.42108 
H          H       0.56594   0.15708   0.17108 
H          H       0.93406   0.34292   0.67108 
H          H       0.34292   0.06594   0.32892 
H          H       0.15708   0.43406   0.82892 
H          H       0.43406   0.34292   0.07892 
H          H       0.06594   0.15708   0.57892 
H          H       0.15708   0.93406   0.42108 
H          H       0.34292   0.56594   0.92108 
H          H       0.06594   0.65708   0.67108 
H          H       0.43406   0.84292   0.17108 
H          H       0.84292   0.56594   0.82892 
H          H       0.65708   0.93406   0.32892 
H          H       0.93406   0.84292   0.57892 
H          H       0.56594   0.65708   0.07892 
H          H       0.68016   0.58774   0.33794 
H          H       0.81984   0.91226   0.83794 
H          H       0.41226   0.18016   0.58794 
H          H       0.08774   0.31984   0.08794 
H          H       0.31984   0.91226   0.91206 
H          H       0.18016   0.58774   0.41206 
H          H       0.58774   0.31984   0.66206 
H          H       0.91226   0.18016   0.16206 
H          H       0.18016   0.08774   0.83794 
H          H       0.31984   0.41226   0.33794 
H          H       0.91226   0.68016   0.08794 
H          H       0.58774   0.81984   0.58794 
H          H       0.81984   0.41226   0.41206 
H          H       0.68016   0.08774   0.91206 
H          H       0.08774   0.81984   0.16206 
H          H       0.41226   0.68016   0.66206 
H          H       0.70978   0.57692   0.57824 
H          H       0.79022   0.92308   0.07824 
H          H       0.42308   0.20978   0.82824 
H          H       0.07692   0.29022   0.32824 
H          H       0.29022   0.92308   0.67176 
H          H       0.20978   0.57692   0.17176 
H          H       0.57692   0.29022   0.42176 
H          H       0.92308   0.20978   0.92176 
H          H       0.20978   0.07692   0.07824 
H          H       0.29022   0.42308   0.57824 
H          H       0.92308   0.70978   0.32824 
H          H       0.57692   0.79022   0.82824 
H          H       0.79022   0.42308   0.17176 
H          H       0.70978   0.07692   0.67176 
H          H       0.07692   0.79022   0.92176 
H          H       0.42308   0.70978   0.42176 
H          H       0.68154   0.61115   0.62331 
H          H       0.81846   0.88885   0.12331 
H          H       0.38885   0.18154   0.87331 
H          H       0.11115   0.31846   0.37331 
H          H       0.31846   0.88885   0.62669 
H          H       0.18154   0.61115   0.12669 
H          H       0.61115   0.31846   0.37669 
H          H       0.88885   0.18154   0.87669 
H          H       0.18154   0.11115   0.12331 
H          H       0.31846   0.38885   0.62331 
H          H       0.88885   0.68154   0.37331 
H          H       0.61115   0.81846   0.87331 
H          H       0.81846   0.38885   0.12669 
H          H       0.68154   0.11115   0.62669 
H          H       0.11115   0.81846   0.87669 
H          H       0.38885   0.68154   0.37669 
H          H       0.60144   0.56284   0.64104 
H          H       0.89856   0.93716   0.14104 
H          H       0.43716   0.10144   0.89104 
H          H       0.06284   0.39856   0.39104 
H          H       0.39856   0.93716   0.60896 
H          H       0.10144   0.56284   0.10896 
H          H       0.56284   0.39856   0.35896 
H          H       0.93716   0.10144   0.85896 
H          H       0.10144   0.06284   0.14104 
H          H       0.39856   0.43716   0.64104 
H          H       0.93716   0.60144   0.39104 
H          H       0.56284   0.89856   0.89104 
H          H       0.89856   0.43716   0.10896 
H          H       0.60144   0.06284   0.60896 
H          H       0.06284   0.89856   0.85896 
H          H       0.43716   0.60144   0.35896 
H          H       0.62105   0.59865   0.51030 
H          H       0.87895   0.90135   0.01030 
H          H       0.40135   0.12105   0.76030 
H          H       0.09865   0.37895   0.26030 
H          H       0.37895   0.90135   0.73970 
H          H       0.12105   0.59865   0.23970 
H          H       0.59865   0.37895   0.48970 
H          H       0.90135   0.12105   0.98970 
H          H       0.12105   0.09865   0.01030 
H          H       0.37895   0.40135   0.51030 
H          H       0.90135   0.62105   0.26030 
H          H       0.59865   0.87895   0.76030 
H          H       0.87895   0.40135   0.23970 
H          H       0.62105   0.09865   0.73970 
H          H       0.09865   0.87895   0.98970 
H          H       0.40135   0.62105   0.48970 
H          H       0.62027   0.59432   0.83934 
H          H       0.87973   0.90568   0.33934 
H          H       0.40568   0.12027   0.08934 
H          H       0.09432   0.37973   0.58934 
H          H       0.37973   0.90568   0.41066 
H          H       0.12027   0.59432   0.91066 
H          H       0.59432   0.37973   0.16066 
H          H       0.90568   0.12027   0.66066 
H          H       0.12027   0.09432   0.33934 
H          H       0.37973   0.40568   0.83934 
H          H       0.90568   0.62027   0.58934 
H          H       0.59432   0.87973   0.08934 
H          H       0.87973   0.40568   0.91066 
H          H       0.62027   0.09432   0.41066 
H          H       0.09432   0.87973   0.66066 
H          H       0.40568   0.62027   0.16066 
C          C       0.50000   0.50000   0.50000 
C          C       0.00000   0.00000   0.00000 
C          C       0.50000   0.00000   0.75000 
C          C       0.00000   0.50000   0.25000 
