data_crystal
 
_cell_length_a    17.49000
_cell_length_b    17.49000
_cell_length_c    6.99200
_cell_angle_alpha 90.00000
_cell_angle_beta  90.00000
_cell_angle_gamma 120.00000
 
_symmetry_space_group_name_Hall 'P 1'
_symmetry_space_group_name_H-M  'P 1'
 
loop_
_symmetry_equiv_pos_as_xyz
 'x,y,z' 
 
loop_
_atom_site_label
_atom_site_type_symbol
_atom_site_fract_x
_atom_site_fract_y
_atom_site_fract_z
N          N       0.20784   0.81437   0.00000 
C          C       0.24089   0.75873   0.00000 
N          N       0.33031   0.79205   0.00000 
N          N       0.25655   0.90750   0.00000 
N          N       0.09080   0.62483   0.00000 
N          N       0.18446   0.66972   0.00000 
N          N       0.37503   0.74383   0.00000 
C          C       0.33566   0.65837   0.00000 
C          C       0.38606   0.61225   0.00000 
C          C       0.47914   0.65874   0.00000 
C          C       0.52549   0.61301   0.00000 
C          C       0.47935   0.52042   0.00000 
C          C       0.38630   0.47426   0.00000 
C          C       0.33993   0.51997   0.00000 
N          N       0.48060   0.37739   0.00000 
C          C       0.52785   0.47194   0.00000 
N          N       0.61783   0.51589   0.00000 
C          C       0.66256   0.47106   0.00000 
C          C       0.52672   0.33417   0.00000 
C          C       0.47923   0.23689   0.00000 
C          C       0.76042   0.51982   0.00000 
N          N       0.61695   0.38119   0.00000 
C          C       0.38615   0.18845   0.00000 
C          C       0.80778   0.61242   0.00000 
C          C       0.52643   0.19167   0.00000 
C          C       0.48121   0.09937   0.00000 
C          C       0.38842   0.05135   0.00000 
C          C       0.34096   0.09624   0.00000 
C          C       0.80729   0.47426   0.00000 
C          C       0.90009   0.52063   0.00000 
C          C       0.94702   0.61318   0.00000 
C          C       0.90055   0.65879   0.00000 
C          C       0.04427   0.66363   0.00000 
C          C       0.34249   0.95465   0.00000 
H          H       0.37627   0.86460   0.00000 
H          H       0.21962   0.63174   0.00000 
H          H       0.26004   0.61726   0.00000 
H          H       0.51718   0.73403   0.00000 
H          H       0.60120   0.65135   0.00000 
H          H       0.34799   0.39896   0.00000 
H          H       0.26422   0.48198   0.00000 
H          H       0.34689   0.22432   0.00000 
H          H       0.77058   0.65035   0.00000 
H          H       0.60213   0.23063   0.00000 
H          H       0.52003   0.06306   0.00000 
H          H       0.26526   0.05748   0.00000 
H          H       0.76926   0.39897   0.00000 
H          H       0.93777   0.48318   0.00000 
H          H       0.93833   0.73408   0.00000 
H          H       0.07897   0.73882   0.00000 
H          H       0.38385   0.92097   0.00000 
H          H       0.13632   0.79383   0.00000 
Cl         Cl      0.17349   0.93394   0.00000 
N          N       0.20784   0.81437   0.50000 
C          C       0.24089   0.75873   0.50000 
N          N       0.33031   0.79205   0.50000 
N          N       0.25655   0.90750   0.50000 
N          N       0.09080   0.62483   0.50000 
N          N       0.18446   0.66972   0.50000 
N          N       0.37503   0.74383   0.50000 
C          C       0.33566   0.65837   0.50000 
C          C       0.38606   0.61225   0.50000 
C          C       0.47914   0.65874   0.50000 
C          C       0.52549   0.61301   0.50000 
C          C       0.47935   0.52042   0.50000 
C          C       0.38630   0.47426   0.50000 
C          C       0.33993   0.51997   0.50000 
N          N       0.48060   0.37739   0.50000 
C          C       0.52785   0.47194   0.50000 
N          N       0.61783   0.51589   0.50000 
C          C       0.66256   0.47106   0.50000 
C          C       0.52672   0.33417   0.50000 
C          C       0.47923   0.23689   0.50000 
C          C       0.76042   0.51982   0.50000 
N          N       0.61695   0.38119   0.50000 
C          C       0.38615   0.18845   0.50000 
C          C       0.80778   0.61242   0.50000 
C          C       0.52643   0.19167   0.50000 
C          C       0.48121   0.09937   0.50000 
C          C       0.38842   0.05135   0.50000 
C          C       0.34096   0.09624   0.50000 
C          C       0.80729   0.47426   0.50000 
C          C       0.90009   0.52063   0.50000 
C          C       0.94702   0.61318   0.50000 
C          C       0.90055   0.65879   0.50000 
C          C       0.04427   0.66363   0.50000 
C          C       0.34249   0.95465   0.50000 
H          H       0.37627   0.86460   0.50000 
H          H       0.21962   0.63174   0.50000 
H          H       0.26004   0.61726   0.50000 
H          H       0.51718   0.73403   0.50000 
H          H       0.60120   0.65135   0.50000 
H          H       0.34799   0.39896   0.50000 
H          H       0.26422   0.48198   0.50000 
H          H       0.34689   0.22432   0.50000 
H          H       0.77058   0.65035   0.50000 
H          H       0.60213   0.23063   0.50000 
H          H       0.52003   0.06306   0.50000 
H          H       0.26526   0.05748   0.50000 
H          H       0.76926   0.39897   0.50000 
H          H       0.93777   0.48318   0.50000 
H          H       0.93833   0.73408   0.50000 
H          H       0.07897   0.73882   0.50000 
H          H       0.38385   0.92097   0.50000 
H          H       0.13632   0.79383   0.50000 
Cl         Cl      0.17349   0.93394   0.50000 
