data_crystal

_cell_length_a    15.00000
_cell_length_b    15.00000
_cell_length_c    7.51200
_cell_angle_alpha 90.00000
_cell_angle_beta  90.00000
_cell_angle_gamma 120.00000

_space_group_name_Hall 'P 1'
_space_group_name_H-M_alt  'P 1'

loop_
_symmetry_equiv_pos_as_xyz
'x,y,z' 

loop_
_atom_site_label
_atom_site_type_symbol
_atom_site_fract_x
_atom_site_fract_y
_atom_site_fract_z
N          N       0.23499   0.79525   0.07756 
C          C       0.27474   0.73123   0.07292 
N          N       0.37851   0.77099   0.07756 
N          N       0.29115   0.90362   0.06954 
N          N       0.10236   0.57526   0.06954 
N          N       0.21073   0.62747   0.07756 
N          N       0.43072   0.71482   0.06954 
C          C       0.38955   0.62123   0.01083 
C          C       0.44699   0.56593   0.00808 
C          C       0.54617   0.60945   0.07995 
C          C       0.59852   0.55435   0.07846 
C          C       0.55353   0.45530   0.00350 
C          C       0.45417   0.41300   0.43062 
C          C       0.40115   0.46748   0.43390 
C          C       0.45163   0.23190   0.07846 
C          C       0.55067   0.28596   0.00350 
N          N       0.60807   0.39790   0.00238 
C          C       0.72002   0.45244   0.00350 
C          C       0.77408   0.40746   0.07846 
C          C       0.59297   0.22890   0.43063 
C          C       0.39652   0.12444   0.07994 
C          C       0.44004   0.06878   0.00808 
C          C       0.53850   0.12140   0.43391 
C          C       0.88154   0.45981   0.07995 
C          C       0.93720   0.55899   0.00808 
C          C       0.88457   0.60482   0.43390 
C          C       0.77707   0.55180   0.43062 
C          C       0.04993   0.61643   0.01083 
C          C       0.38475   0.95605   0.01084 
H          H       0.43057   0.85543   0.08865 
H          H       0.25165   0.58321   0.08882 
H          H       0.30689   0.58016   0.45987 
H          H       0.58435   0.69004   0.13984 
H          H       0.67883   0.59073   0.13916 
H          H       0.41579   0.33317   0.36771 
H          H       0.32023   0.43155   0.37591 
H          H       0.41524   0.27582   0.13915 
H          H       0.73016   0.32715   0.13916 
H          H       0.67281   0.27035   0.36772 
H          H       0.31593   0.08203   0.13983 
H          H       0.57464   0.07663   0.37581 
H          H       0.92395   0.42163   0.13984 
H          H       0.92934   0.68573   0.37580 
H          H       0.73435   0.58901   0.36825 
H          H       0.09152   0.69908   0.45987 
H          H       0.42581   0.91446   0.45987 
H          H       0.14959   0.75488   0.07755 
Cl         Cl      0.17302   0.89779   0.06953 
N          N       0.23499   0.79525   0.57756 
C          C       0.27474   0.73123   0.57292 
N          N       0.37851   0.77099   0.57756 
N          N       0.29115   0.90362   0.56954 
N          N       0.10236   0.57526   0.56954 
N          N       0.21073   0.62747   0.57756 
N          N       0.43072   0.71482   0.56954 
C          C       0.38955   0.62123   0.51083 
C          C       0.44699   0.56593   0.50807 
C          C       0.54617   0.60945   0.57995 
C          C       0.59852   0.55435   0.57847 
C          C       0.55353   0.45530   0.50350 
C          C       0.45417   0.41300   0.93062 
C          C       0.40115   0.46748   0.93390 
C          C       0.45163   0.23190   0.57846 
C          C       0.55067   0.28596   0.50350 
N          N       0.60807   0.39790   0.50238 
C          C       0.72002   0.45244   0.50350 
C          C       0.77408   0.40746   0.57846 
C          C       0.59297   0.22890   0.93063 
C          C       0.39652   0.12444   0.57994 
C          C       0.44004   0.06878   0.50807 
C          C       0.53850   0.12140   0.93391 
C          C       0.88154   0.45981   0.57995 
C          C       0.93720   0.55899   0.50807 
C          C       0.88457   0.60482   0.93390 
C          C       0.77707   0.55180   0.93062 
C          C       0.04993   0.61643   0.51083 
C          C       0.38475   0.95605   0.51084 
H          H       0.43057   0.85543   0.58865 
H          H       0.25165   0.58321   0.58881 
H          H       0.30689   0.58016   0.95986 
H          H       0.58435   0.69004   0.63984 
H          H       0.67883   0.59073   0.63916 
H          H       0.41579   0.33317   0.86771 
H          H       0.32023   0.43155   0.87591 
H          H       0.41524   0.27582   0.63915 
H          H       0.73016   0.32715   0.63916 
H          H       0.67281   0.27035   0.86772 
H          H       0.31593   0.08203   0.63983 
H          H       0.57464   0.07663   0.87581 
H          H       0.92395   0.42163   0.63984 
H          H       0.92934   0.68573   0.87580 
H          H       0.73435   0.58901   0.86825 
H          H       0.09152   0.69908   0.95987 
H          H       0.42581   0.91446   0.95987 
H          H       0.14959   0.75488   0.57755 
Cl         Cl      0.17302   0.89779   0.56953 
