data_crystal
 
_cell_length_a    17.55000
_cell_length_b    17.55000
_cell_length_c    7.00800
_cell_angle_alpha 90.00000
_cell_angle_beta  90.00000
_cell_angle_gamma 120.00000
 
_space_group_name_Hall 'P 1'
_space_group_name_H-M_alt  'P 1'
 
loop_
_symmetry_equiv_pos_as_xyz
 'x,y,z' 
 
loop_
_atom_site_label
_atom_site_type_symbol
_atom_site_fract_x
_atom_site_fract_y
_atom_site_fract_z
N          N       0.22663   0.81377   0.00000 
C          C       0.25937   0.75792   0.00000 
N          N       0.34797   0.79065   0.00000 
N          N       0.27505   0.90656   0.00000 
N          N       0.11072   0.62495   0.00000 
N          N       0.20351   0.66932   0.00000 
N          N       0.39233   0.74223   0.00000 
C          C       0.35345   0.65707   0.00000 
C          C       0.40366   0.61091   0.00000 
C          C       0.49583   0.65709   0.00000 
C          C       0.54209   0.61145   0.00000 
C          C       0.49700   0.51907   0.00000 
C          C       0.40460   0.47338   0.00000 
C          C       0.35831   0.51901   0.00000 
C          C       0.50101   0.37844   0.00000 
C          C       0.54602   0.47067   0.00000 
C          C       0.63826   0.51628   0.00000 
C          C       0.68547   0.47126   0.00000 
C          C       0.54662   0.33181   0.00000 
C          C       0.49822   0.23439   0.00000 
C          C       0.78289   0.52029   0.00000 
C          C       0.63885   0.37903   0.00000 
C          C       0.40584   0.18710   0.00000 
C          C       0.82960   0.61268   0.00000 
C          C       0.54391   0.18769   0.00000 
C          C       0.49827   0.09577   0.00000 
C          C       0.40637   0.04921   0.00000 
C          C       0.36019   0.09520   0.00000 
C          C       0.83018   0.47519   0.00000 
C          C       0.92209   0.52146   0.00000 
C          C       0.96808   0.61363   0.00000 
C          C       0.92152   0.65897   0.00000 
C          C       0.06444   0.66383   0.00000 
C          C       0.36022   0.95285   0.00000 
H          H       0.39350   0.86288   0.00000 
H          H       0.23843   0.63122   0.00000 
H          H       0.27854   0.61635   0.00000 
H          H       0.53326   0.73211   0.00000 
H          H       0.61710   0.64984   0.00000 
H          H       0.36668   0.39836   0.00000 
H          H       0.28330   0.48124   0.00000 
H          H       0.42600   0.34004   0.00000 
H          H       0.67486   0.59128   0.00000 
H          H       0.67724   0.34242   0.00000 
H          H       0.36744   0.22371   0.00000 
H          H       0.79250   0.65060   0.00000 
H          H       0.61892   0.22546   0.00000 
H          H       0.53605   0.05852   0.00000 
H          H       0.28518   0.05761   0.00000 
H          H       0.79293   0.40018   0.00000 
H          H       0.95985   0.48420   0.00000 
H          H       0.95853   0.73398   0.00000 
H          H       0.09864   0.73875   0.00000 
H          H       0.40094   0.91865   0.00000 
H          H       0.16382   0.81465   0.00000 
Cl         Cl      0.19269   0.93343   0.00000 
N          N       0.22663   0.81377   0.50000 
C          C       0.25937   0.75792   0.50000 
N          N       0.34797   0.79065   0.50000 
N          N       0.27505   0.90656   0.50000 
N          N       0.11072   0.62495   0.50000 
N          N       0.20351   0.66932   0.50000 
N          N       0.39233   0.74223   0.50000 
C          C       0.35345   0.65707   0.50000 
C          C       0.40366   0.61091   0.50000 
C          C       0.49583   0.65709   0.50000 
C          C       0.54209   0.61145   0.50000 
C          C       0.49700   0.51907   0.50000 
C          C       0.40460   0.47338   0.50000 
C          C       0.35831   0.51901   0.50000 
C          C       0.50101   0.37844   0.50000 
C          C       0.54602   0.47067   0.50000 
C          C       0.63826   0.51628   0.50000 
C          C       0.68547   0.47126   0.50000 
C          C       0.54662   0.33181   0.50000 
C          C       0.49822   0.23439   0.50000 
C          C       0.78289   0.52029   0.50000 
C          C       0.63885   0.37903   0.50000 
C          C       0.40584   0.18710   0.50000 
C          C       0.82960   0.61268   0.50000 
C          C       0.54391   0.18769   0.50000 
C          C       0.49827   0.09577   0.50000 
C          C       0.40637   0.04921   0.50000 
C          C       0.36019   0.09520   0.50000 
C          C       0.83018   0.47519   0.50000 
C          C       0.92209   0.52146   0.50000 
C          C       0.96808   0.61363   0.50000 
C          C       0.92152   0.65897   0.50000 
C          C       0.06444   0.66383   0.50000 
C          C       0.36022   0.95285   0.50000 
H          H       0.39350   0.86288   0.50000 
H          H       0.23843   0.63122   0.50000 
H          H       0.27854   0.61635   0.50000 
H          H       0.53326   0.73211   0.50000 
H          H       0.61710   0.64984   0.50000 
H          H       0.36668   0.39836   0.50000 
H          H       0.28330   0.48124   0.50000 
H          H       0.42600   0.34004   0.50000 
H          H       0.67486   0.59128   0.50000 
H          H       0.67724   0.34242   0.50000 
H          H       0.36744   0.22371   0.50000 
H          H       0.79250   0.65060   0.50000 
H          H       0.61892   0.22546   0.50000 
H          H       0.53605   0.05852   0.50000 
H          H       0.28518   0.05761   0.50000 
H          H       0.79293   0.40018   0.50000 
H          H       0.95985   0.48420   0.50000 
H          H       0.95853   0.73398   0.50000 
H          H       0.09864   0.73875   0.50000 
H          H       0.40094   0.91865   0.50000 
H          H       0.16382   0.81465   0.50000 
Cl         Cl      0.19269   0.93343   0.50000 
