data_crystal

_cell_length_a    36.22380
_cell_length_b    36.22380
_cell_length_c    7.15250
_cell_angle_alpha 90.00000
_cell_angle_beta  90.00000
_cell_angle_gamma 90.00000

_space_group_name_Hall 'P 1'
_space_group_name_H-M_alt  'P 1'

loop_
_symmetry_equiv_pos_as_xyz
'x,y,z' 

loop_
_atom_site_label
_atom_site_type_symbol
_atom_site_fract_x
_atom_site_fract_y
_atom_site_fract_z
C          C       0.96054   0.47372   0.29446 
C          C       0.03946   0.52628   0.29446 
C          C       0.52628   0.96054   0.29446 
C          C       0.47372   0.03946   0.29446 
C          C       0.03946   0.47372   0.20554 
C          C       0.96054   0.52628   0.20554 
C          C       0.47372   0.96054   0.20554 
C          C       0.52628   0.03946   0.20554 
C          C       0.79236   0.76744   0.23509 
C          C       0.20764   0.23256   0.23509 
C          C       0.23256   0.79236   0.23509 
C          C       0.76744   0.20764   0.23509 
C          C       0.20764   0.76744   0.26491 
C          C       0.79236   0.23256   0.26491 
C          C       0.76744   0.79236   0.26491 
C          C       0.23256   0.20764   0.26491 
C          C       0.92677   0.51678   0.22352 
C          C       0.07323   0.48322   0.22352 
C          C       0.48322   0.92677   0.22352 
C          C       0.51678   0.07323   0.22352 
C          C       0.07323   0.51678   0.27648 
C          C       0.92677   0.48322   0.27648 
C          C       0.51678   0.92677   0.27648 
C          C       0.48322   0.07323   0.27648 
H          H       0.87227   0.46911   0.28613 
H          H       0.12773   0.53089   0.28613 
H          H       0.53089   0.87227   0.28613 
H          H       0.46911   0.12773   0.28613 
H          H       0.12773   0.46911   0.21387 
H          H       0.87227   0.53089   0.21387 
H          H       0.46911   0.87227   0.21387 
H          H       0.53089   0.12773   0.21387 
C          C       0.89989   0.46054   0.30372 
C          C       0.10011   0.53946   0.30372 
C          C       0.53946   0.89989   0.30372 
C          C       0.46054   0.10011   0.30372 
C          C       0.10011   0.46054   0.19628 
C          C       0.89989   0.53946   0.19628 
C          C       0.46054   0.89989   0.19628 
C          C       0.53946   0.10011   0.19628 
H          H       0.94882   0.39014   0.42647 
H          H       0.05118   0.60986   0.42647 
H          H       0.60986   0.94882   0.42647 
H          H       0.39014   0.05118   0.42647 
H          H       0.05118   0.39014   0.07353 
H          H       0.94882   0.60986   0.07353 
H          H       0.39014   0.94882   0.07353 
H          H       0.60986   0.05118   0.07353 
C          C       0.90783   0.42663   0.35375 
C          C       0.09217   0.57337   0.35375 
C          C       0.57337   0.90783   0.35375 
C          C       0.42663   0.09217   0.35375 
C          C       0.09217   0.42663   0.14625 
C          C       0.90783   0.57337   0.14625 
C          C       0.42663   0.90783   0.14625 
C          C       0.57337   0.09217   0.14625 
H          H       0.99664   0.43330   0.37830 
H          H       0.00336   0.56670   0.37830 
H          H       0.56670   0.99664   0.37830 
H          H       0.43330   0.00336   0.37830 
H          H       0.00336   0.43330   0.12171 
H          H       0.99664   0.56670   0.12171 
H          H       0.43330   0.99664   0.12171 
H          H       0.56670   0.00336   0.12171 
C          C       0.94240   0.41729   0.38108 
C          C       0.05760   0.58271   0.38108 
C          C       0.58271   0.94240   0.38108 
C          C       0.41729   0.05760   0.38108 
C          C       0.05760   0.41729   0.11892 
C          C       0.94240   0.58271   0.11892 
C          C       0.41729   0.94240   0.11892 
C          C       0.58271   0.05760   0.11892 
H          H       0.83875   0.43764   0.33408 
H          H       0.16125   0.56236   0.33408 
H          H       0.56236   0.83875   0.33408 
H          H       0.43764   0.16125   0.33408 
H          H       0.16125   0.43764   0.16592 
H          H       0.83875   0.56236   0.16592 
H          H       0.43764   0.83875   0.16592 
H          H       0.56236   0.16125   0.16592 
C          C       0.96891   0.44087   0.35330 
C          C       0.03109   0.55913   0.35330 
C          C       0.55913   0.96891   0.35330 
C          C       0.44087   0.03109   0.35330 
C          C       0.03109   0.44087   0.14670 
C          C       0.96891   0.55913   0.14670 
C          C       0.44087   0.96891   0.14670 
C          C       0.55913   0.03109   0.14670 
H          H       0.79290   0.39223   0.31831 
H          H       0.20710   0.60777   0.31831 
H          H       0.60777   0.79290   0.31831 
H          H       0.39223   0.20710   0.31831 
H          H       0.20710   0.39223   0.18169 
H          H       0.79290   0.60777   0.18169 
H          H       0.39223   0.79290   0.18169 
H          H       0.60777   0.20710   0.18169 
C          C       0.88064   0.59958   0.13778 
C          C       0.11936   0.40042   0.13778 
C          C       0.40042   0.88064   0.13778 
C          C       0.59958   0.11936   0.13778 
C          C       0.11936   0.59958   0.36222 
C          C       0.88064   0.40042   0.36222 
C          C       0.59958   0.88064   0.36222 
C          C       0.40042   0.11936   0.36222 
H          H       0.87123   0.31256   0.37610 
H          H       0.12877   0.68744   0.37610 
H          H       0.68744   0.87123   0.37610 
H          H       0.31256   0.12877   0.37610 
H          H       0.12877   0.31256   0.12390 
H          H       0.87123   0.68744   0.12390 
H          H       0.31256   0.87123   0.12390 
H          H       0.68744   0.12877   0.12390 
C          C       0.84615   0.40953   0.34259 
C          C       0.15385   0.59047   0.34259 
C          C       0.59047   0.84615   0.34259 
C          C       0.40953   0.15385   0.34259 
C          C       0.15385   0.40953   0.15741 
C          C       0.84615   0.59047   0.15741 
C          C       0.40953   0.84615   0.15741 
C          C       0.59047   0.15385   0.15741 
H          H       0.91701   0.35791   0.39408 
H          H       0.08299   0.64209   0.39408 
H          H       0.64209   0.91701   0.39408 
H          H       0.35791   0.08299   0.39408 
H          H       0.08299   0.35791   0.10592 
H          H       0.91701   0.64209   0.10592 
H          H       0.35791   0.91701   0.10592 
H          H       0.64209   0.08299   0.10592 
C          C       0.82081   0.38445   0.33339 
C          C       0.17919   0.61555   0.33339 
C          C       0.61555   0.82081   0.33339 
C          C       0.38445   0.17919   0.33339 
C          C       0.17919   0.38445   0.16661 
C          C       0.82081   0.61555   0.16661 
C          C       0.38445   0.82081   0.16661 
C          C       0.61555   0.17919   0.16661 
H          H       0.83749   0.71703   0.17936 
H          H       0.16251   0.28297   0.17936 
H          H       0.28297   0.83749   0.17936 
H          H       0.71703   0.16251   0.17936 
H          H       0.16251   0.71703   0.32064 
H          H       0.83749   0.28297   0.32064 
H          H       0.71703   0.83749   0.32064 
H          H       0.28297   0.16251   0.32064 
C          C       0.82954   0.34989   0.34259 
C          C       0.17046   0.65011   0.34259 
C          C       0.65011   0.82954   0.34259 
C          C       0.34989   0.17046   0.34259 
C          C       0.17046   0.34989   0.15741 
C          C       0.82954   0.65011   0.15741 
C          C       0.34989   0.82954   0.15741 
C          C       0.65011   0.17046   0.15741 
C          C       0.86392   0.34066   0.36548 
C          C       0.13608   0.65934   0.36548 
C          C       0.65934   0.86392   0.36548 
C          C       0.34066   0.13608   0.36548 
C          C       0.13608   0.34066   0.13452 
C          C       0.86392   0.65934   0.13452 
C          C       0.34066   0.86392   0.13452 
C          C       0.65934   0.13608   0.13452 
H          H       0.82034   0.77515   0.22313 
H          H       0.17966   0.22485   0.22313 
H          H       0.22485   0.82034   0.22313 
H          H       0.77515   0.17966   0.22313 
H          H       0.17966   0.77515   0.27687 
H          H       0.82034   0.22485   0.27687 
H          H       0.77515   0.82034   0.27687 
H          H       0.22485   0.17966   0.27687 
C          C       0.88918   0.36571   0.37529 
C          C       0.11082   0.63429   0.37529 
C          C       0.63429   0.88918   0.37529 
C          C       0.36571   0.11082   0.37529 
C          C       0.11082   0.36571   0.12471 
C          C       0.88918   0.63429   0.12471 
C          C       0.36571   0.88918   0.12471 
C          C       0.63429   0.11082   0.12471 
N          N       0.98183   0.50000   0.25000 
N          N       0.01817   0.50000   0.25000 
N          N       0.50000   0.98183   0.25000 
N          N       0.50000   0.01817   0.25000 
N          N       0.80337   0.67531   0.18016 
N          N       0.19663   0.32469   0.18016 
N          N       0.32469   0.80337   0.18016 
N          N       0.67531   0.19663   0.18016 
N          N       0.19663   0.67531   0.31984 
N          N       0.80337   0.32469   0.31984 
N          N       0.67531   0.80337   0.31984 
N          N       0.32469   0.19663   0.31984 
C          C       0.81003   0.70766   0.19150 
C          C       0.18997   0.29234   0.19150 
C          C       0.29234   0.81003   0.19150 
C          C       0.70766   0.18997   0.19150 
C          C       0.18997   0.70766   0.30850 
C          C       0.81003   0.29234   0.30850 
C          C       0.70766   0.81003   0.30850 
C          C       0.29234   0.18997   0.30850 
C          C       0.73310   0.78312   0.28016 
C          C       0.26690   0.21688   0.28016 
C          C       0.21688   0.73310   0.28016 
C          C       0.78312   0.26690   0.28016 
C          C       0.26690   0.78312   0.21984 
C          C       0.73310   0.21688   0.21984 
C          C       0.78312   0.73310   0.21984 
C          C       0.21688   0.26690   0.21984 
C          C       0.72373   0.74868   0.26485 
C          C       0.27627   0.25132   0.26485 
C          C       0.25132   0.72373   0.26485 
C          C       0.74868   0.27627   0.26485 
C          C       0.27627   0.74868   0.23515 
C          C       0.72373   0.25132   0.23515 
C          C       0.74868   0.72373   0.23515 
C          C       0.25132   0.27627   0.23515 
H          H       0.74315   0.30064   0.28249 
H          H       0.69972   0.25626   0.25311 
H          H       0.25113   0.29980   0.24895 
H          H       0.30393   0.25519   0.24973 
H          H       0.25479   0.70191   0.24999 
H          H       0.29873   0.74095   0.21655 
H          H       0.69914   0.74693   0.27928 
H          H       0.74256   0.70171   0.22619 
C          C       0.96054   0.47372   0.79446 
C          C       0.03946   0.52628   0.79446 
C          C       0.52628   0.96054   0.79446 
C          C       0.47372   0.03946   0.79446 
C          C       0.03946   0.47372   0.70554 
C          C       0.96054   0.52628   0.70554 
C          C       0.47372   0.96054   0.70554 
C          C       0.52628   0.03946   0.70554 
C          C       0.79236   0.76744   0.73509 
C          C       0.20764   0.23256   0.73509 
C          C       0.23256   0.79236   0.73509 
C          C       0.76744   0.20764   0.73509 
C          C       0.20764   0.76744   0.76491 
C          C       0.79236   0.23256   0.76491 
C          C       0.76744   0.79236   0.76491 
C          C       0.23256   0.20764   0.76491 
C          C       0.92677   0.51678   0.72352 
C          C       0.07323   0.48322   0.72352 
C          C       0.48322   0.92677   0.72352 
C          C       0.51678   0.07323   0.72352 
C          C       0.07323   0.51678   0.77648 
C          C       0.92677   0.48322   0.77648 
C          C       0.51678   0.92677   0.77648 
C          C       0.48322   0.07323   0.77648 
H          H       0.87227   0.46911   0.78613 
H          H       0.12773   0.53089   0.78613 
H          H       0.53089   0.87227   0.78613 
H          H       0.46911   0.12773   0.78613 
H          H       0.12773   0.46911   0.71387 
H          H       0.87227   0.53089   0.71387 
H          H       0.46911   0.87227   0.71387 
H          H       0.53089   0.12773   0.71387 
C          C       0.89989   0.46054   0.80372 
C          C       0.10011   0.53946   0.80372 
C          C       0.53946   0.89989   0.80372 
C          C       0.46054   0.10011   0.80372 
C          C       0.10011   0.46054   0.69628 
C          C       0.89989   0.53946   0.69628 
C          C       0.46054   0.89989   0.69628 
C          C       0.53946   0.10011   0.69628 
H          H       0.94882   0.39014   0.92647 
H          H       0.05118   0.60986   0.92647 
H          H       0.60986   0.94882   0.92647 
H          H       0.39014   0.05118   0.92647 
H          H       0.05118   0.39014   0.57353 
H          H       0.94882   0.60986   0.57353 
H          H       0.39014   0.94882   0.57353 
H          H       0.60986   0.05118   0.57353 
C          C       0.90783   0.42663   0.85375 
C          C       0.09217   0.57337   0.85375 
C          C       0.57337   0.90783   0.85375 
C          C       0.42663   0.09217   0.85375 
C          C       0.09217   0.42663   0.64625 
C          C       0.90783   0.57337   0.64625 
C          C       0.42663   0.90783   0.64625 
C          C       0.57337   0.09217   0.64625 
H          H       0.99664   0.43330   0.87830 
H          H       0.00336   0.56670   0.87830 
H          H       0.56670   0.99664   0.87830 
H          H       0.43330   0.00336   0.87830 
H          H       0.00336   0.43330   0.62171 
H          H       0.99664   0.56670   0.62171 
H          H       0.43330   0.99664   0.62171 
H          H       0.56670   0.00336   0.62171 
C          C       0.94240   0.41729   0.88108 
C          C       0.05760   0.58271   0.88108 
C          C       0.58271   0.94240   0.88108 
C          C       0.41729   0.05760   0.88108 
C          C       0.05760   0.41729   0.61892 
C          C       0.94240   0.58271   0.61892 
C          C       0.41729   0.94240   0.61892 
C          C       0.58271   0.05760   0.61892 
H          H       0.83875   0.43764   0.83408 
H          H       0.16125   0.56236   0.83408 
H          H       0.56236   0.83875   0.83408 
H          H       0.43764   0.16125   0.83408 
H          H       0.16125   0.43764   0.66592 
H          H       0.83875   0.56236   0.66592 
H          H       0.43764   0.83875   0.66592 
H          H       0.56236   0.16125   0.66592 
C          C       0.96891   0.44087   0.85330 
C          C       0.03109   0.55913   0.85330 
C          C       0.55913   0.96891   0.85330 
C          C       0.44087   0.03109   0.85330 
C          C       0.03109   0.44087   0.64670 
C          C       0.96891   0.55913   0.64670 
C          C       0.44087   0.96891   0.64670 
C          C       0.55913   0.03109   0.64670 
H          H       0.79290   0.39223   0.81831 
H          H       0.20710   0.60777   0.81831 
H          H       0.60777   0.79290   0.81831 
H          H       0.39223   0.20710   0.81831 
H          H       0.20710   0.39223   0.68169 
H          H       0.79290   0.60777   0.68169 
H          H       0.39223   0.79290   0.68169 
H          H       0.60777   0.20710   0.68169 
C          C       0.88064   0.59958   0.63778 
C          C       0.11936   0.40042   0.63778 
C          C       0.40042   0.88064   0.63778 
C          C       0.59958   0.11936   0.63778 
C          C       0.11936   0.59958   0.86222 
C          C       0.88064   0.40042   0.86222 
C          C       0.59958   0.88064   0.86222 
C          C       0.40042   0.11936   0.86222 
H          H       0.87123   0.31256   0.87610 
H          H       0.12877   0.68744   0.87610 
H          H       0.68744   0.87123   0.87610 
H          H       0.31256   0.12877   0.87610 
H          H       0.12877   0.31256   0.62390 
H          H       0.87123   0.68744   0.62390 
H          H       0.31256   0.87123   0.62390 
H          H       0.68744   0.12877   0.62390 
C          C       0.84615   0.40953   0.84259 
C          C       0.15385   0.59047   0.84259 
C          C       0.59047   0.84615   0.84259 
C          C       0.40953   0.15385   0.84259 
C          C       0.15385   0.40953   0.65741 
C          C       0.84615   0.59047   0.65741 
C          C       0.40953   0.84615   0.65741 
C          C       0.59047   0.15385   0.65741 
H          H       0.91701   0.35791   0.89408 
H          H       0.08299   0.64209   0.89408 
H          H       0.64209   0.91701   0.89408 
H          H       0.35791   0.08299   0.89408 
H          H       0.08299   0.35791   0.60592 
H          H       0.91701   0.64209   0.60592 
H          H       0.35791   0.91701   0.60592 
H          H       0.64209   0.08299   0.60592 
C          C       0.82081   0.38445   0.83339 
C          C       0.17919   0.61555   0.83339 
C          C       0.61555   0.82081   0.83339 
C          C       0.38445   0.17919   0.83339 
C          C       0.17919   0.38445   0.66661 
C          C       0.82081   0.61555   0.66661 
C          C       0.38445   0.82081   0.66661 
C          C       0.61555   0.17919   0.66661 
H          H       0.83749   0.71703   0.67936 
H          H       0.16251   0.28297   0.67936 
H          H       0.28297   0.83749   0.67936 
H          H       0.71703   0.16251   0.67936 
H          H       0.16251   0.71703   0.82064 
H          H       0.83749   0.28297   0.82064 
H          H       0.71703   0.83749   0.82064 
H          H       0.28297   0.16251   0.82064 
C          C       0.82954   0.34989   0.84259 
C          C       0.17046   0.65011   0.84259 
C          C       0.65011   0.82954   0.84259 
C          C       0.34989   0.17046   0.84259 
C          C       0.17046   0.34989   0.65741 
C          C       0.82954   0.65011   0.65741 
C          C       0.34989   0.82954   0.65741 
C          C       0.65011   0.17046   0.65741 
C          C       0.86392   0.34066   0.86548 
C          C       0.13608   0.65934   0.86548 
C          C       0.65934   0.86392   0.86548 
C          C       0.34066   0.13608   0.86548 
C          C       0.13608   0.34066   0.63452 
C          C       0.86392   0.65934   0.63452 
C          C       0.34066   0.86392   0.63452 
C          C       0.65934   0.13608   0.63452 
H          H       0.82034   0.77515   0.72313 
H          H       0.17966   0.22485   0.72313 
H          H       0.22485   0.82034   0.72313 
H          H       0.77515   0.17966   0.72313 
H          H       0.17966   0.77515   0.77687 
H          H       0.82034   0.22485   0.77687 
H          H       0.77515   0.82034   0.77687 
H          H       0.22485   0.17966   0.77687 
C          C       0.88918   0.36571   0.87529 
C          C       0.11082   0.63429   0.87529 
C          C       0.63429   0.88918   0.87529 
C          C       0.36571   0.11082   0.87529 
C          C       0.11082   0.36571   0.62471 
C          C       0.88918   0.63429   0.62471 
C          C       0.36571   0.88918   0.62471 
C          C       0.63429   0.11082   0.62471 
N          N       0.98183   0.50000   0.75000 
N          N       0.01817   0.50000   0.75000 
N          N       0.50000   0.98183   0.75000 
N          N       0.50000   0.01817   0.75000 
N          N       0.80337   0.67531   0.68016 
N          N       0.19663   0.32469   0.68016 
N          N       0.32469   0.80337   0.68016 
N          N       0.67531   0.19663   0.68016 
N          N       0.19663   0.67531   0.81984 
N          N       0.80337   0.32469   0.81984 
N          N       0.67531   0.80337   0.81984 
N          N       0.32469   0.19663   0.81984 
C          C       0.81003   0.70766   0.69150 
C          C       0.18997   0.29234   0.69150 
C          C       0.29234   0.81003   0.69150 
C          C       0.70766   0.18997   0.69150 
C          C       0.18997   0.70766   0.80850 
C          C       0.81003   0.29234   0.80850 
C          C       0.70766   0.81003   0.80850 
C          C       0.29234   0.18997   0.80850 
C          C       0.73310   0.78312   0.78016 
C          C       0.26690   0.21688   0.78016 
C          C       0.21688   0.73310   0.78016 
C          C       0.78312   0.26690   0.78016 
C          C       0.26690   0.78312   0.71984 
C          C       0.73310   0.21688   0.71984 
C          C       0.78312   0.73310   0.71984 
C          C       0.21688   0.26690   0.71984 
C          C       0.72373   0.74868   0.76485 
C          C       0.27627   0.25132   0.76485 
C          C       0.25132   0.72373   0.76485 
C          C       0.74868   0.27627   0.76485 
C          C       0.27627   0.74868   0.73515 
C          C       0.72373   0.25132   0.73515 
C          C       0.74868   0.72373   0.73515 
C          C       0.25132   0.27627   0.73515 
H          H       0.74315   0.30064   0.78249 
H          H       0.69972   0.25626   0.75311 
H          H       0.25113   0.29980   0.74895 
H          H       0.30393   0.25519   0.74973 
H          H       0.25479   0.70191   0.74999 
H          H       0.29873   0.74095   0.71655 
H          H       0.69914   0.74693   0.77928 
H          H       0.74256   0.70171   0.72619 
