data_crystal

_cell_length_a    36.10710
_cell_length_b    42.11820
_cell_length_c    8.15898
_cell_angle_alpha 90.00000
_cell_angle_beta  90.00000
_cell_angle_gamma 90.00000

_space_group_name_Hall 'P 1'
_space_group_name_H-M_alt  'P 1'

loop_
_symmetry_equiv_pos_as_xyz
'x,y,z' 

loop_
_atom_site_label
_atom_site_type_symbol
_atom_site_fract_x
_atom_site_fract_y
_atom_site_fract_z
C          C       0.52758   0.96279   0.29993 
C          C       0.47242   0.03721   0.29993 
C          C       0.47242   0.96279   0.20008 
C          C       0.52758   0.03721   0.20008 
H          H       0.42879   0.99399   0.12221 
H          H       0.57121   0.00601   0.12221 
H          H       0.57121   0.99399   0.37779 
H          H       0.42879   0.00601   0.37779 
C          C       0.48245   0.93132   0.21894 
C          C       0.51755   0.06868   0.21894 
C          C       0.51755   0.93132   0.28106 
C          C       0.48245   0.06868   0.28106 
H          H       0.38520   0.95123   0.05822 
H          H       0.61480   0.04877   0.05822 
H          H       0.61480   0.95123   0.44178 
H          H       0.38520   0.04877   0.44178 
C          C       0.43760   0.97003   0.13682 
C          C       0.56240   0.02997   0.13682 
C          C       0.56240   0.97003   0.36318 
C          C       0.43760   0.02997   0.36318 
H          H       0.46697   0.88186   0.20769 
H          H       0.53303   0.11814   0.20769 
H          H       0.53303   0.88186   0.29231 
H          H       0.46697   0.11814   0.29231 
C          C       0.41267   0.94535   0.10211 
C          C       0.58733   0.05465   0.10211 
C          C       0.58733   0.94535   0.39789 
C          C       0.41267   0.05465   0.39789 
H          H       0.35378   0.91413   0.25833 
H          H       0.64622   0.08587   0.25833 
H          H       0.64622   0.91413   0.24167 
H          H       0.35378   0.08587   0.24167 
C          C       0.42264   0.91332   0.12898 
C          C       0.57736   0.08668   0.12898 
C          C       0.57736   0.91332   0.37102 
C          C       0.42264   0.08668   0.37102 
H          H       0.30735   0.87195   0.25385 
H          H       0.69265   0.12805   0.25385 
H          H       0.69265   0.87195   0.24614 
H          H       0.30735   0.12805   0.24614 
C          C       0.45864   0.90611   0.18401 
C          C       0.54136   0.09389   0.18401 
C          C       0.54136   0.90611   0.31600 
C          C       0.45864   0.09389   0.31600 
H          H       0.38107   0.81306   0.47016 
H          H       0.61893   0.18694   0.47016 
H          H       0.61893   0.81306   0.02984 
H          H       0.38107   0.18694   0.02984 
C          C       0.39430   0.88808   0.11647 
C          C       0.60570   0.11192   0.11647 
C          C       0.60570   0.88808   0.38353 
C          C       0.39430   0.11192   0.38353 
H          H       0.42813   0.85555   0.47611 
H          H       0.57187   0.14445   0.47611 
H          H       0.57187   0.85555   0.02389 
H          H       0.42813   0.14445   0.02389 
C          C       0.35981   0.89240   0.19259 
C          C       0.64019   0.10760   0.19259 
C          C       0.64019   0.89240   0.30741 
C          C       0.35981   0.10760   0.30741 
H          H       0.28974   0.81744   0.20189 
H          H       0.71026   0.18256   0.20189 
H          H       0.71026   0.81744   0.29811 
H          H       0.28974   0.18256   0.29811 
C          C       0.33342   0.86825   0.19096 
C          C       0.66658   0.13175   0.19096 
C          C       0.66658   0.86825   0.30904 
C          C       0.33342   0.13175   0.30904 
H          H       0.24338   0.78755   0.14906 
H          H       0.75662   0.21245   0.14906 
H          H       0.75662   0.78755   0.35094 
H          H       0.24338   0.21245   0.35094 
C          C       0.34076   0.83940   0.11171 
C          C       0.65924   0.16060   0.11171 
C          C       0.65924   0.83940   0.38828 
C          C       0.34076   0.16060   0.38828 
H          H       0.20211   0.74189   0.15260 
H          H       0.79789   0.25811   0.15260 
H          H       0.79789   0.74189   0.34740 
H          H       0.20211   0.25811   0.34740 
C          C       0.37502   0.83512   0.03285 
C          C       0.62498   0.16488   0.03285 
C          C       0.62498   0.83512   0.46715 
C          C       0.37502   0.16488   0.46715 
H          H       0.28363   0.68641   0.39532 
H          H       0.71637   0.31359   0.39532 
H          H       0.71637   0.68641   0.10468 
H          H       0.28363   0.31359   0.10468 
C          C       0.40178   0.85923   0.03651 
C          C       0.59822   0.14077   0.03651 
C          C       0.59822   0.85923   0.46349 
C          C       0.40178   0.14077   0.46349 
H          H       0.32591   0.73215   0.39575 
H          H       0.67409   0.26785   0.39575 
H          H       0.67409   0.73215   0.10425 
H          H       0.32591   0.26785   0.10425 
C          C       0.31251   0.81414   0.11772 
C          C       0.68749   0.18586   0.11772 
C          C       0.68749   0.81414   0.38228 
C          C       0.31251   0.18586   0.38228 
H          H       0.24110   0.64908   0.41202 
H          H       0.75890   0.35092   0.41202 
H          H       0.75890   0.64908   0.08797 
H          H       0.24110   0.35092   0.08797 
N          N       0.31511   0.78863   0.02842 
N          N       0.68489   0.21137   0.02842 
N          N       0.68489   0.78863   0.47158 
N          N       0.31511   0.21137   0.47158 
H          H       0.84821   0.33419   0.14302 
H          H       0.15179   0.66581   0.14302 
H          H       0.15179   0.33419   0.35698 
H          H       0.84821   0.66581   0.35698 
C          C       0.28873   0.76299   0.02627 
C          C       0.71127   0.23701   0.02627 
C          C       0.71127   0.76299   0.47373 
C          C       0.28873   0.23701   0.47373 
H          H       0.89683   0.37290   0.19817 
H          H       0.10317   0.62710   0.19817 
H          H       0.10317   0.37290   0.30183 
H          H       0.89683   0.62710   0.30183 
C          C       0.25312   0.76569   0.09538 
C          C       0.74688   0.23431   0.09538 
C          C       0.74688   0.76569   0.40462 
C          C       0.25312   0.23431   0.40462 
H          H       0.83361   0.44490   0.44706 
H          H       0.16639   0.55510   0.44706 
H          H       0.16639   0.44490   0.05294 
H          H       0.83361   0.55510   0.05294 
C          C       0.22910   0.73973   0.09592 
C          C       0.77090   0.26027   0.09592 
C          C       0.77090   0.73973   0.40409 
C          C       0.22910   0.26027   0.40409 
H          H       0.78458   0.40585   0.39105 
H          H       0.21542   0.59415   0.39105 
H          H       0.21542   0.40585   0.10895 
H          H       0.78458   0.59415   0.10895 
C          C       0.23957   0.71083   0.02618 
C          C       0.76043   0.28917   0.02618 
C          C       0.76043   0.71083   0.47382 
C          C       0.23957   0.28917   0.47382 
H          H       0.94337   0.40303   0.03998 
H          H       0.05663   0.59697   0.03998 
H          H       0.05663   0.40303   0.46002 
H          H       0.94337   0.59697   0.46002 
C          C       0.27465   0.70824   0.45209 
C          C       0.72535   0.29176   0.45209 
C          C       0.72535   0.70824   0.04791 
C          C       0.27465   0.29176   0.04791 
H          H       0.99313   0.43911   0.12250 
H          H       0.00687   0.56089   0.12250 
H          H       0.00687   0.43911   0.37750 
H          H       0.99313   0.56089   0.37750 
C          C       0.29889   0.73429   0.45211 
C          C       0.70111   0.26571   0.45211 
C          C       0.70111   0.73429   0.04788 
C          C       0.29889   0.26571   0.04788 
H          H       0.86216   0.47274   0.19228 
H          H       0.13784   0.52726   0.19228 
H          H       0.13784   0.47274   0.30773 
H          H       0.86216   0.52726   0.30773 
N          N       0.21380   0.68501   0.03816 
N          N       0.78620   0.31499   0.03816 
N          N       0.78620   0.68501   0.46185 
N          N       0.21380   0.31499   0.46185 
N          N       0.50000   0.98295   0.25000 
N          N       0.50000   0.01705   0.25000 
C          C       0.21697   0.65635   0.48081 
C          C       0.78303   0.34365   0.48081 
C          C       0.78303   0.65635   0.01919 
C          C       0.21697   0.34365   0.01919 
N          N       0.98012   0.50000   0.25000 
N          N       0.01988   0.50000   0.25000 
C          C       0.81273   0.36704   0.01211 
C          C       0.18727   0.63296   0.01211 
C          C       0.18727   0.36704   0.48789 
C          C       0.81273   0.63296   0.48789 
C          C       0.84484   0.35821   0.09811 
C          C       0.15516   0.64179   0.09811 
C          C       0.15516   0.35821   0.40188 
C          C       0.84484   0.64179   0.40188 
C          C       0.87272   0.38033   0.12891 
C          C       0.12728   0.61967   0.12891 
C          C       0.12728   0.38033   0.37109 
C          C       0.87272   0.61967   0.37109 
C          C       0.86910   0.41182   0.07513 
C          C       0.13090   0.58818   0.07513 
C          C       0.13090   0.41182   0.42486 
C          C       0.86910   0.58818   0.42486 
C          C       0.83689   0.42083   0.49038 
C          C       0.16311   0.57917   0.49038 
C          C       0.16311   0.42083   0.00962 
C          C       0.83689   0.57917   0.00962 
C          C       0.80900   0.39854   0.45820 
C          C       0.19100   0.60146   0.45820 
C          C       0.19100   0.39854   0.04180 
C          C       0.80900   0.60146   0.04180 
C          C       0.89892   0.43500   0.11022 
C          C       0.10108   0.56500   0.11022 
C          C       0.10108   0.43500   0.38978 
C          C       0.89892   0.56500   0.38978 
C          C       0.93640   0.42614   0.08933 
C          C       0.06360   0.57386   0.08933 
C          C       0.06360   0.42614   0.41068 
C          C       0.93640   0.57386   0.41068 
C          C       0.96516   0.44686   0.13336 
C          C       0.03484   0.55314   0.13336 
C          C       0.03484   0.44686   0.36664 
C          C       0.96516   0.55314   0.36664 
C          C       0.95663   0.47653   0.19825 
C          C       0.04337   0.52347   0.19825 
C          C       0.04337   0.47653   0.30175 
C          C       0.95663   0.52347   0.30175 
C          C       0.91991   0.48514   0.21652 
C          C       0.08009   0.51486   0.21652 
C          C       0.08009   0.48514   0.28348 
C          C       0.91991   0.51486   0.28348 
C          C       0.89051   0.46532   0.17312 
C          C       0.10949   0.53468   0.17312 
C          C       0.10949   0.46532   0.32688 
C          C       0.89051   0.53468   0.32688 
C          C       0.52758   0.96279   0.79992 
C          C       0.47242   0.03721   0.79992 
C          C       0.47242   0.96279   0.70008 
C          C       0.52758   0.03721   0.70008 
H          H       0.42879   0.99399   0.62221 
H          H       0.57121   0.00601   0.62221 
H          H       0.57121   0.99399   0.87779 
H          H       0.42879   0.00601   0.87779 
C          C       0.48245   0.93132   0.71894 
C          C       0.51755   0.06868   0.71894 
C          C       0.51755   0.93132   0.78106 
C          C       0.48245   0.06868   0.78106 
H          H       0.38520   0.95123   0.55822 
H          H       0.61480   0.04877   0.55822 
H          H       0.61480   0.95123   0.94178 
H          H       0.38520   0.04877   0.94178 
C          C       0.43760   0.97003   0.63682 
C          C       0.56240   0.02997   0.63682 
C          C       0.56240   0.97003   0.86318 
C          C       0.43760   0.02997   0.86318 
H          H       0.46697   0.88186   0.70769 
H          H       0.53303   0.11814   0.70769 
H          H       0.53303   0.88186   0.79231 
H          H       0.46697   0.11814   0.79231 
C          C       0.41267   0.94535   0.60211 
C          C       0.58733   0.05465   0.60211 
C          C       0.58733   0.94535   0.89789 
C          C       0.41267   0.05465   0.89789 
H          H       0.35378   0.91413   0.75833 
H          H       0.64622   0.08587   0.75833 
H          H       0.64622   0.91413   0.74167 
H          H       0.35378   0.08587   0.74167 
C          C       0.42264   0.91332   0.62898 
C          C       0.57736   0.08668   0.62898 
C          C       0.57736   0.91332   0.87102 
C          C       0.42264   0.08668   0.87102 
H          H       0.30735   0.87195   0.75386 
H          H       0.69265   0.12805   0.75386 
H          H       0.69265   0.87195   0.74614 
H          H       0.30735   0.12805   0.74614 
C          C       0.45864   0.90611   0.68401 
C          C       0.54136   0.09389   0.68401 
C          C       0.54136   0.90611   0.81600 
C          C       0.45864   0.09389   0.81600 
H          H       0.38107   0.81306   0.97016 
H          H       0.61893   0.18694   0.97016 
H          H       0.61893   0.81306   0.52984 
H          H       0.38107   0.18694   0.52984 
C          C       0.39430   0.88808   0.61647 
C          C       0.60570   0.11192   0.61647 
C          C       0.60570   0.88808   0.88353 
C          C       0.39430   0.11192   0.88353 
H          H       0.42813   0.85555   0.97611 
H          H       0.57187   0.14445   0.97611 
H          H       0.57187   0.85555   0.52389 
H          H       0.42813   0.14445   0.52389 
C          C       0.35981   0.89240   0.69259 
C          C       0.64019   0.10760   0.69259 
C          C       0.64019   0.89240   0.80741 
C          C       0.35981   0.10760   0.80741 
H          H       0.28974   0.81744   0.70189 
H          H       0.71026   0.18256   0.70189 
H          H       0.71026   0.81744   0.79811 
H          H       0.28974   0.18256   0.79811 
C          C       0.33342   0.86825   0.69096 
C          C       0.66658   0.13175   0.69096 
C          C       0.66658   0.86825   0.80904 
C          C       0.33342   0.13175   0.80904 
H          H       0.24338   0.78755   0.64906 
H          H       0.75662   0.21245   0.64906 
H          H       0.75662   0.78755   0.85094 
H          H       0.24338   0.21245   0.85094 
C          C       0.34076   0.83940   0.61172 
C          C       0.65924   0.16060   0.61172 
C          C       0.65924   0.83940   0.88828 
C          C       0.34076   0.16060   0.88828 
H          H       0.20211   0.74189   0.65261 
H          H       0.79789   0.25811   0.65261 
H          H       0.79789   0.74189   0.84740 
H          H       0.20211   0.25811   0.84740 
C          C       0.37502   0.83512   0.53285 
C          C       0.62498   0.16488   0.53285 
C          C       0.62498   0.83512   0.96715 
C          C       0.37502   0.16488   0.96715 
H          H       0.28363   0.68641   0.89533 
H          H       0.71637   0.31359   0.89533 
H          H       0.71637   0.68641   0.60468 
H          H       0.28363   0.31359   0.60468 
C          C       0.40178   0.85923   0.53651 
C          C       0.59822   0.14077   0.53651 
C          C       0.59822   0.85923   0.96349 
C          C       0.40178   0.14077   0.96349 
H          H       0.32591   0.73215   0.89575 
H          H       0.67409   0.26785   0.89575 
H          H       0.67409   0.73215   0.60425 
H          H       0.32591   0.26785   0.60425 
C          C       0.31251   0.81414   0.61772 
C          C       0.68749   0.18586   0.61772 
C          C       0.68749   0.81414   0.88228 
C          C       0.31251   0.18586   0.88228 
H          H       0.24110   0.64908   0.91202 
H          H       0.75890   0.35092   0.91202 
H          H       0.75890   0.64908   0.58798 
H          H       0.24110   0.35092   0.58798 
N          N       0.31511   0.78863   0.52842 
N          N       0.68489   0.21137   0.52842 
N          N       0.68489   0.78863   0.97158 
N          N       0.31511   0.21137   0.97158 
H          H       0.84821   0.33419   0.64302 
H          H       0.15179   0.66581   0.64302 
H          H       0.15179   0.33419   0.85698 
H          H       0.84821   0.66581   0.85698 
C          C       0.28873   0.76299   0.52627 
C          C       0.71127   0.23701   0.52627 
C          C       0.71127   0.76299   0.97373 
C          C       0.28873   0.23701   0.97373 
H          H       0.89683   0.37290   0.69818 
H          H       0.10317   0.62710   0.69818 
H          H       0.10317   0.37290   0.80183 
H          H       0.89683   0.62710   0.80183 
C          C       0.25312   0.76569   0.59538 
C          C       0.74688   0.23431   0.59538 
C          C       0.74688   0.76569   0.90462 
C          C       0.25312   0.23431   0.90462 
H          H       0.83361   0.44490   0.94707 
H          H       0.16639   0.55510   0.94707 
H          H       0.16639   0.44490   0.55294 
H          H       0.83361   0.55510   0.55294 
C          C       0.22910   0.73973   0.59592 
C          C       0.77090   0.26027   0.59592 
C          C       0.77090   0.73973   0.90409 
C          C       0.22910   0.26027   0.90409 
H          H       0.78458   0.40585   0.89106 
H          H       0.21542   0.59415   0.89106 
H          H       0.21542   0.40585   0.60894 
H          H       0.78458   0.59415   0.60894 
C          C       0.23957   0.71083   0.52618 
C          C       0.76043   0.28917   0.52618 
C          C       0.76043   0.71083   0.97382 
C          C       0.23957   0.28917   0.97382 
H          H       0.94337   0.40303   0.53998 
H          H       0.05663   0.59697   0.53998 
H          H       0.05663   0.40303   0.96002 
H          H       0.94337   0.59697   0.96002 
C          C       0.27465   0.70824   0.95209 
C          C       0.72535   0.29176   0.95209 
C          C       0.72535   0.70824   0.54791 
C          C       0.27465   0.29176   0.54791 
H          H       0.99313   0.43911   0.62250 
H          H       0.00687   0.56089   0.62250 
H          H       0.00687   0.43911   0.87750 
H          H       0.99313   0.56089   0.87750 
C          C       0.29889   0.73429   0.95212 
C          C       0.70111   0.26571   0.95212 
C          C       0.70111   0.73429   0.54789 
C          C       0.29889   0.26571   0.54789 
H          H       0.86216   0.47274   0.69228 
H          H       0.13784   0.52726   0.69228 
H          H       0.13784   0.47274   0.80773 
H          H       0.86216   0.52726   0.80773 
N          N       0.21380   0.68501   0.53816 
N          N       0.78620   0.31499   0.53816 
N          N       0.78620   0.68501   0.96184 
N          N       0.21380   0.31499   0.96184 
N          N       0.50000   0.98295   0.75000 
N          N       0.50000   0.01705   0.75000 
C          C       0.21697   0.65635   0.98081 
C          C       0.78303   0.34365   0.98081 
C          C       0.78303   0.65635   0.51919 
C          C       0.21697   0.34365   0.51919 
N          N       0.98012   0.50000   0.75000 
N          N       0.01988   0.50000   0.75000 
C          C       0.81273   0.36704   0.51211 
C          C       0.18727   0.63296   0.51211 
C          C       0.18727   0.36704   0.98789 
C          C       0.81273   0.63296   0.98789 
C          C       0.84484   0.35821   0.59812 
C          C       0.15516   0.64179   0.59812 
C          C       0.15516   0.35821   0.90188 
C          C       0.84484   0.64179   0.90188 
C          C       0.87272   0.38033   0.62891 
C          C       0.12728   0.61967   0.62891 
C          C       0.12728   0.38033   0.87109 
C          C       0.87272   0.61967   0.87109 
C          C       0.86910   0.41182   0.57513 
C          C       0.13090   0.58818   0.57513 
C          C       0.13090   0.41182   0.92487 
C          C       0.86910   0.58818   0.92487 
C          C       0.83689   0.42083   0.99038 
C          C       0.16311   0.57917   0.99038 
C          C       0.16311   0.42083   0.50962 
C          C       0.83689   0.57917   0.50962 
C          C       0.80900   0.39854   0.95820 
C          C       0.19100   0.60146   0.95820 
C          C       0.19100   0.39854   0.54180 
C          C       0.80900   0.60146   0.54180 
C          C       0.89892   0.43500   0.61022 
C          C       0.10108   0.56500   0.61022 
C          C       0.10108   0.43500   0.88978 
C          C       0.89892   0.56500   0.88978 
C          C       0.93640   0.42614   0.58933 
C          C       0.06360   0.57386   0.58933 
C          C       0.06360   0.42614   0.91068 
C          C       0.93640   0.57386   0.91068 
C          C       0.96516   0.44686   0.63336 
C          C       0.03484   0.55314   0.63336 
C          C       0.03484   0.44686   0.86664 
C          C       0.96516   0.55314   0.86664 
C          C       0.95663   0.47653   0.69825 
C          C       0.04337   0.52347   0.69825 
C          C       0.04337   0.47653   0.80175 
C          C       0.95663   0.52347   0.80175 
C          C       0.91991   0.48514   0.71652 
C          C       0.08009   0.51486   0.71652 
C          C       0.08009   0.48514   0.78348 
C          C       0.91991   0.51486   0.78348 
C          C       0.89051   0.46532   0.67312 
C          C       0.10949   0.53468   0.67312 
C          C       0.10949   0.46532   0.82688 
C          C       0.89051   0.53468   0.82688 
