data_crystal

_cell_length_a    28.80330
_cell_length_b    31.63250
_cell_length_c    8.09846
_cell_angle_alpha 90.00000
_cell_angle_beta  90.00000
_cell_angle_gamma 90.00000

_space_group_name_Hall 'P 1'
_space_group_name_H-M_alt  'P 1'

loop_
_symmetry_equiv_pos_as_xyz
'x,y,z' 

loop_
_atom_site_label
_atom_site_type_symbol
_atom_site_fract_x
_atom_site_fract_y
_atom_site_fract_z
C          C       0.46498   0.95030   0.29622 
C          C       0.53502   0.04970   0.29622 
C          C       0.53502   0.95030   0.20378 
C          C       0.46498   0.04970   0.20378 
C          C       0.86262   0.45149   0.20059 
C          C       0.13738   0.54851   0.20059 
C          C       0.13738   0.45149   0.29941 
C          C       0.86262   0.54851   0.29941 
C          C       0.47756   0.90845   0.27658 
C          C       0.52244   0.09155   0.27658 
C          C       0.52244   0.90845   0.22342 
C          C       0.47756   0.09155   0.22342 
H          H       0.54299   0.84302   0.23301 
H          H       0.45701   0.15698   0.23301 
H          H       0.45701   0.84302   0.26699 
H          H       0.54299   0.15698   0.26699 
C          C       0.55340   0.87493   0.20239 
C          C       0.44660   0.12507   0.20239 
C          C       0.44660   0.87493   0.29761 
C          C       0.55340   0.12507   0.29761 
H          H       0.64616   0.93474   0.08070 
H          H       0.35384   0.06526   0.08070 
H          H       0.35384   0.93474   0.41931 
H          H       0.64616   0.06526   0.41931 
C          C       0.59957   0.88451   0.15861 
C          C       0.40043   0.11549   0.15861 
C          C       0.40043   0.88451   0.34139 
C          C       0.59957   0.11549   0.34139 
H          H       0.58977   0.99135   0.12164 
H          H       0.41023   0.00865   0.12164 
H          H       0.41023   0.99135   0.37836 
H          H       0.58977   0.00865   0.37836 
C          C       0.61133   0.92685   0.12058 
C          C       0.38867   0.07315   0.12058 
C          C       0.38867   0.92685   0.37942 
C          C       0.61133   0.07315   0.37942 
H          H       0.59649   0.80055   0.06960 
H          H       0.40351   0.19945   0.06960 
H          H       0.40351   0.80055   0.43040 
H          H       0.59649   0.19945   0.43040 
C          C       0.57906   0.95962   0.14255 
C          C       0.42094   0.04038   0.14255 
C          C       0.42094   0.95962   0.35745 
C          C       0.57906   0.04038   0.35745 
H          H       0.65654   0.74653   0.11953 
H          H       0.34346   0.25347   0.11953 
H          H       0.34346   0.74653   0.38047 
H          H       0.65654   0.25347   0.38047 
C          C       0.63652   0.85200   0.17396 
C          C       0.36348   0.14800   0.17396 
C          C       0.36348   0.85200   0.32604 
C          C       0.63652   0.14800   0.32604 
H          H       0.74542   0.84152   0.33292 
H          H       0.25458   0.15848   0.33292 
H          H       0.25458   0.84152   0.16708 
H          H       0.74542   0.15848   0.16708 
C          C       0.62879   0.80970   0.12786 
C          C       0.37121   0.19030   0.12786 
C          C       0.37121   0.80970   0.37215 
C          C       0.62879   0.19030   0.37215 
H          H       0.68564   0.89484   0.28881 
H          H       0.31436   0.10516   0.28881 
H          H       0.31436   0.89484   0.21119 
H          H       0.68564   0.10516   0.21119 
C          C       0.66290   0.77893   0.15642 
C          C       0.33710   0.22107   0.15642 
C          C       0.33710   0.77893   0.34358 
C          C       0.66290   0.22107   0.34358 
H          H       0.77630   0.77034   0.29392 
H          H       0.22370   0.22966   0.29392 
H          H       0.22370   0.77034   0.20608 
H          H       0.77630   0.22966   0.20608 
C          C       0.70522   0.79007   0.23089 
C          C       0.29478   0.20993   0.23089 
C          C       0.29478   0.79007   0.26911 
C          C       0.70522   0.20993   0.26911 
H          H       0.82396   0.27799   0.33513 
H          H       0.17604   0.72201   0.33513 
H          H       0.17604   0.27799   0.16487 
H          H       0.82396   0.72201   0.16487 
C          C       0.71316   0.83231   0.27429 
C          C       0.28684   0.16769   0.27429 
C          C       0.28684   0.83231   0.22571 
C          C       0.71316   0.16769   0.22571 
H          H       0.88294   0.33220   0.29550 
H          H       0.11706   0.66780   0.29550 
H          H       0.11706   0.33220   0.20450 
H          H       0.88294   0.66780   0.20450 
C          C       0.67914   0.86286   0.24723 
C          C       0.32086   0.13714   0.24723 
C          C       0.32086   0.86286   0.25277 
C          C       0.67914   0.13714   0.25277 
H          H       0.78210   0.41200   0.05414 
H          H       0.21790   0.58800   0.05414 
H          H       0.21790   0.41200   0.44586 
H          H       0.78210   0.58800   0.44586 
C          C       0.74200   0.75872   0.26276 
C          C       0.25800   0.24128   0.26276 
C          C       0.25800   0.75872   0.23724 
C          C       0.74200   0.24128   0.23724 
H          H       0.72251   0.35672   0.09574 
H          H       0.27749   0.64328   0.09574 
H          H       0.27749   0.35672   0.40426 
H          H       0.72251   0.64328   0.40426 
N          N       0.26632   0.71832   0.23850 
N          N       0.73368   0.28168   0.23850 
N          N       0.73368   0.71832   0.26150 
N          N       0.26632   0.28168   0.26150 
H          H       0.92833   0.36694   0.08016 
H          H       0.07167   0.63306   0.08016 
H          H       0.07167   0.36694   0.41984 
H          H       0.92833   0.63306   0.41984 
C          C       0.76909   0.31303   0.21374 
C          C       0.23091   0.68697   0.21374 
C          C       0.23091   0.31303   0.28626 
C          C       0.76909   0.68697   0.28626 
H          H       0.99056   0.41826   0.12175 
H          H       0.00944   0.58174   0.12175 
H          H       0.00944   0.41826   0.37826 
H          H       0.99056   0.58174   0.37826 
C          C       0.81472   0.30652   0.26933 
C          C       0.18528   0.69348   0.26933 
C          C       0.18528   0.30652   0.23067 
C          C       0.81472   0.69348   0.23067 
H          H       0.82748   0.46094   0.23017 
H          H       0.17252   0.53906   0.23017 
H          H       0.17252   0.46094   0.26982 
H          H       0.82748   0.53906   0.26982 
C          C       0.84846   0.33759   0.24659 
C          C       0.15154   0.66241   0.24659 
C          C       0.15154   0.33759   0.25341 
C          C       0.84846   0.66241   0.25341 
N          N       0.50000   0.97726   0.25000 
N          N       0.50000   0.02274   0.25000 
C          C       0.83735   0.37598   0.16865 
C          C       0.16265   0.62402   0.16865 
C          C       0.16265   0.37598   0.33135 
C          C       0.83735   0.62402   0.33135 
N          N       0.97503   0.50000   0.25000 
N          N       0.02497   0.50000   0.25000 
C          C       0.79153   0.38272   0.11475 
C          C       0.20847   0.61728   0.11475 
C          C       0.20847   0.38272   0.38526 
C          C       0.79153   0.61728   0.38526 
C          C       0.75765   0.35143   0.13811 
C          C       0.24235   0.64857   0.13811 
C          C       0.24235   0.35143   0.36189 
C          C       0.75765   0.64857   0.36189 
C          C       0.87317   0.40952   0.15614 
C          C       0.12683   0.59048   0.15614 
C          C       0.12683   0.40952   0.34386 
C          C       0.87317   0.59048   0.34386 
C          C       0.91971   0.39870   0.11962 
C          C       0.08029   0.60130   0.11962 
C          C       0.08029   0.39870   0.38038 
C          C       0.91971   0.60130   0.38038 
C          C       0.95570   0.42805   0.14225 
C          C       0.04430   0.57195   0.14225 
C          C       0.04430   0.42805   0.35775 
C          C       0.95570   0.57195   0.35775 
C          C       0.94543   0.46814   0.20349 
C          C       0.05457   0.53186   0.20349 
C          C       0.05457   0.46814   0.29651 
C          C       0.94543   0.53186   0.29651 
C          C       0.89945   0.47960   0.22304 
C          C       0.10055   0.52040   0.22304 
C          C       0.10055   0.47960   0.27697 
C          C       0.89945   0.52040   0.27697 
C          C       0.46498   0.95030   0.79622 
C          C       0.53502   0.04970   0.79622 
C          C       0.53502   0.95030   0.70378 
C          C       0.46498   0.04970   0.70378 
C          C       0.86262   0.45149   0.70059 
C          C       0.13738   0.54851   0.70059 
C          C       0.13738   0.45149   0.79941 
C          C       0.86262   0.54851   0.79941 
C          C       0.47756   0.90845   0.77658 
C          C       0.52244   0.09155   0.77658 
C          C       0.52244   0.90845   0.72342 
C          C       0.47756   0.09155   0.72342 
H          H       0.54299   0.84302   0.73301 
H          H       0.45701   0.15698   0.73301 
H          H       0.45701   0.84302   0.76699 
H          H       0.54299   0.15698   0.76699 
C          C       0.55340   0.87493   0.70239 
C          C       0.44660   0.12507   0.70239 
C          C       0.44660   0.87493   0.79761 
C          C       0.55340   0.12507   0.79761 
H          H       0.64616   0.93474   0.58070 
H          H       0.35384   0.06526   0.58070 
H          H       0.35384   0.93474   0.91930 
H          H       0.64616   0.06526   0.91930 
C          C       0.59957   0.88451   0.65861 
C          C       0.40043   0.11549   0.65861 
C          C       0.40043   0.88451   0.84139 
C          C       0.59957   0.11549   0.84139 
H          H       0.58977   0.99135   0.62164 
H          H       0.41023   0.00865   0.62164 
H          H       0.41023   0.99135   0.87836 
H          H       0.58977   0.00865   0.87836 
C          C       0.61133   0.92685   0.62058 
C          C       0.38867   0.07315   0.62058 
C          C       0.38867   0.92685   0.87942 
C          C       0.61133   0.07315   0.87942 
H          H       0.59649   0.80055   0.56960 
H          H       0.40351   0.19945   0.56960 
H          H       0.40351   0.80055   0.93040 
H          H       0.59649   0.19945   0.93040 
C          C       0.57906   0.95962   0.64255 
C          C       0.42094   0.04038   0.64255 
C          C       0.42094   0.95962   0.85745 
C          C       0.57906   0.04038   0.85745 
H          H       0.65654   0.74653   0.61953 
H          H       0.34346   0.25347   0.61953 
H          H       0.34346   0.74653   0.88047 
H          H       0.65654   0.25347   0.88047 
C          C       0.63652   0.85200   0.67396 
C          C       0.36348   0.14800   0.67396 
C          C       0.36348   0.85200   0.82604 
C          C       0.63652   0.14800   0.82604 
H          H       0.74542   0.84152   0.83291 
H          H       0.25458   0.15848   0.83291 
H          H       0.25458   0.84152   0.66709 
H          H       0.74542   0.15848   0.66709 
C          C       0.62879   0.80970   0.62786 
C          C       0.37121   0.19030   0.62786 
C          C       0.37121   0.80970   0.87215 
C          C       0.62879   0.19030   0.87215 
H          H       0.68564   0.89484   0.78881 
H          H       0.31436   0.10516   0.78881 
H          H       0.31436   0.89484   0.71119 
H          H       0.68564   0.10516   0.71119 
C          C       0.66290   0.77893   0.65642 
C          C       0.33710   0.22107   0.65642 
C          C       0.33710   0.77893   0.84358 
C          C       0.66290   0.22107   0.84358 
H          H       0.77630   0.77034   0.79392 
H          H       0.22370   0.22966   0.79392 
H          H       0.22370   0.77034   0.70608 
H          H       0.77630   0.22966   0.70608 
C          C       0.70522   0.79007   0.73089 
C          C       0.29478   0.20993   0.73089 
C          C       0.29478   0.79007   0.76911 
C          C       0.70522   0.20993   0.76911 
H          H       0.82396   0.27799   0.83513 
H          H       0.17604   0.72201   0.83513 
H          H       0.17604   0.27799   0.66487 
H          H       0.82396   0.72201   0.66487 
C          C       0.71316   0.83231   0.77429 
C          C       0.28684   0.16769   0.77429 
C          C       0.28684   0.83231   0.72571 
C          C       0.71316   0.16769   0.72571 
H          H       0.88294   0.33220   0.79550 
H          H       0.11706   0.66780   0.79550 
H          H       0.11706   0.33220   0.70451 
H          H       0.88294   0.66780   0.70451 
C          C       0.67914   0.86286   0.74723 
C          C       0.32086   0.13714   0.74723 
C          C       0.32086   0.86286   0.75277 
C          C       0.67914   0.13714   0.75277 
H          H       0.78210   0.41200   0.55414 
H          H       0.21790   0.58800   0.55414 
H          H       0.21790   0.41200   0.94586 
H          H       0.78210   0.58800   0.94586 
C          C       0.74200   0.75872   0.76276 
C          C       0.25800   0.24128   0.76276 
C          C       0.25800   0.75872   0.73724 
C          C       0.74200   0.24128   0.73724 
H          H       0.72251   0.35672   0.59574 
H          H       0.27749   0.64328   0.59574 
H          H       0.27749   0.35672   0.90426 
H          H       0.72251   0.64328   0.90426 
N          N       0.26632   0.71832   0.73850 
N          N       0.73368   0.28168   0.73850 
N          N       0.73368   0.71832   0.76150 
N          N       0.26632   0.28168   0.76150 
H          H       0.92833   0.36694   0.58016 
H          H       0.07167   0.63306   0.58016 
H          H       0.07167   0.36694   0.91984 
H          H       0.92833   0.63306   0.91984 
C          C       0.76909   0.31303   0.71374 
C          C       0.23091   0.68697   0.71374 
C          C       0.23091   0.31303   0.78626 
C          C       0.76909   0.68697   0.78626 
H          H       0.99056   0.41826   0.62174 
H          H       0.00944   0.58174   0.62174 
H          H       0.00944   0.41826   0.87826 
H          H       0.99056   0.58174   0.87826 
C          C       0.81472   0.30652   0.76933 
C          C       0.18528   0.69348   0.76933 
C          C       0.18528   0.30652   0.73067 
C          C       0.81472   0.69348   0.73067 
H          H       0.82748   0.46094   0.73018 
H          H       0.17252   0.53906   0.73018 
H          H       0.17252   0.46094   0.76983 
H          H       0.82748   0.53906   0.76983 
C          C       0.84846   0.33759   0.74659 
C          C       0.15154   0.66241   0.74659 
C          C       0.15154   0.33759   0.75341 
C          C       0.84846   0.66241   0.75341 
N          N       0.50000   0.97726   0.75000 
N          N       0.50000   0.02274   0.75000 
C          C       0.83735   0.37598   0.66865 
C          C       0.16265   0.62402   0.66865 
C          C       0.16265   0.37598   0.83135 
C          C       0.83735   0.62402   0.83135 
N          N       0.97503   0.50000   0.75000 
N          N       0.02497   0.50000   0.75000 
C          C       0.79153   0.38272   0.61474 
C          C       0.20847   0.61728   0.61474 
C          C       0.20847   0.38272   0.88526 
C          C       0.79153   0.61728   0.88526 
C          C       0.75765   0.35143   0.63811 
C          C       0.24235   0.64857   0.63811 
C          C       0.24235   0.35143   0.86189 
C          C       0.75765   0.64857   0.86189 
C          C       0.87317   0.40952   0.65614 
C          C       0.12683   0.59048   0.65614 
C          C       0.12683   0.40952   0.84386 
C          C       0.87317   0.59048   0.84386 
C          C       0.91971   0.39870   0.61963 
C          C       0.08029   0.60130   0.61963 
C          C       0.08029   0.39870   0.88038 
C          C       0.91971   0.60130   0.88038 
C          C       0.95570   0.42805   0.64225 
C          C       0.04430   0.57195   0.64225 
C          C       0.04430   0.42805   0.85776 
C          C       0.95570   0.57195   0.85776 
C          C       0.94543   0.46814   0.70349 
C          C       0.05457   0.53186   0.70349 
C          C       0.05457   0.46814   0.79651 
C          C       0.94543   0.53186   0.79651 
C          C       0.89945   0.47960   0.72304 
C          C       0.10055   0.52040   0.72304 
C          C       0.10055   0.47960   0.77697 
C          C       0.89945   0.52040   0.77697 
