data_crystal

_cell_length_a    19.30000
_cell_length_b    17.00000
_cell_length_c    9.20000
_cell_angle_alpha 90.00000
_cell_angle_beta  90.00000
_cell_angle_gamma 90.00000

_space_group_name_Hall 'P 1'
_space_group_name_H-M_alt  'P 1'

loop_
_symmetry_equiv_pos_as_xyz
'x,y,z' 

loop_
_atom_site_label
_atom_site_type_symbol
_atom_site_fract_x
_atom_site_fract_y
_atom_site_fract_z
N          N       0.27653   0.72690   0.24308 
C          C       0.14705   0.45561   0.31571 
N          N       0.26314   0.28516   0.21646 
C          C       0.66139   0.80864   0.14136 
N          N       0.51956   0.97588   0.27537 
C          C       0.67925   0.88844   0.12489 
N          N       0.74806   0.72136   0.23583 
C          C       0.63296   0.94778   0.16458 
N          N       0.75803   0.30852   0.34304 
C          C       0.56829   0.92715   0.21868 
N          N       0.52322   0.05917   0.29056 
C          C       0.54712   0.84920   0.22122 
C          C       0.01563   0.48098   0.26743 
C          C       0.59326   0.78779   0.18598 
C          C       0.01417   0.56316   0.25346 
C          C       0.46631   0.92773   0.31240 
C          C       0.07872   0.61210   0.23824 
C          C       0.40551   0.94823   0.38417 
C          C       0.08197   0.43123   0.26086 
C          C       0.35425   0.89079   0.40262 
C          C       0.12969   0.59395   0.13579 
C          C       0.36344   0.81366   0.34840 
C          C       0.19470   0.63141   0.13770 
C          C       0.42830   0.79161   0.28771 
C          C       0.20880   0.69046   0.23964 
C          C       0.47961   0.85013   0.27459 
C          C       0.15456   0.71553   0.33098 
C          C       0.71795   0.75135   0.12207 
C          C       0.09043   0.67672   0.33001 
C          C       0.30324   0.76006   0.35808 
C          C       0.07963   0.35493   0.19994 
C          C       0.94730   0.61013   0.25454 
C          C       0.13947   0.30884   0.18466 
C          C       0.94912   0.43390   0.28642 
C          C       0.20379   0.33595   0.23269 
C          C       0.93494   0.67094   0.15404 
C          C       0.20685   0.40939   0.30132 
C          C       0.86970   0.70794   0.14570 
C          C       0.81525   0.68435   0.23781 
H          H       0.16163   0.76452   0.40437 
C          C       0.82937   0.62904   0.34534 
H          H       0.05087   0.69567   0.40459 
C          C       0.89503   0.59471   0.35537 
H          H       0.03119   0.32964   0.16524 
C          C       0.89057   0.44645   0.19926 
H          H       0.13593   0.25116   0.13549 
C          C       0.82833   0.40667   0.22231 
H          H       0.25498   0.43146   0.34498 
C          C       0.82281   0.35013   0.33072 
H          H       0.15411   0.51187   0.36449 
C          C       0.88222   0.33219   0.41356 
H          H       0.73078   0.90465   0.08877 
C          C       0.94434   0.37416   0.39161 
H          H       0.64858   0.00831   0.15783 
C          C       0.38189   0.23941   0.22744 
H          H       0.57837   0.72683   0.19869 
C          C       0.36316   0.16299   0.17976 
H          H       0.39723   0.00747   0.42178 
C          C       0.40959   0.09975   0.19139 
H          H       0.30586   0.90725   0.45412 
C          C       0.47437   0.11320   0.25347 
H          H       0.43735   0.73228   0.24961 
C          C       0.49575   0.18893   0.28664 
H          H       0.74340   0.74984   0.01737 
C          C       0.45073   0.25345   0.27516 
H          H       0.27494   0.76047   0.45958 
C          C       0.57644   0.10231   0.34552 
H          H       0.97496   0.68840   0.07943 
C          C       0.63830   0.07481   0.40402 
H          H       0.86189   0.75438   0.06708 
C          C       0.68891   0.12905   0.44680 
H          H       0.78938   0.61295   0.42224 
C          C       0.67827   0.21048   0.42811 
H          H       0.90528   0.55355   0.43838 
C          C       0.61318   0.23823   0.37765 
H          H       0.89180   0.48927   0.11656 
C          C       0.56270   0.18215   0.34007 
H          H       0.78400   0.41928   0.15409 
C          C       0.32836   0.30203   0.23773 
H          H       0.88133   0.28623   0.49453 
C          C       0.73873   0.26246   0.44823 
H          H       0.98911   0.36015   0.45589 
H          H       0.11981   0.54575   0.06444 
H          H       0.23468   0.61326   0.06243 
H          H       0.46697   0.31121   0.31102 
H          H       0.60369   0.30048   0.36338 
H          H       0.64834   0.01281   0.41226 
H          H       0.34428   0.36048   0.26968 
H          H       0.73819   0.10738   0.48666 
H          H       0.77241   0.25138   0.04002 
H          H       0.38129   0.04890   0.17824 
H          H       0.31247   0.15476   0.16607 
N          N       0.27653   0.72690   0.74308 
C          C       0.14705   0.45561   0.81571 
N          N       0.26314   0.28516   0.71646 
C          C       0.66139   0.80864   0.64136 
N          N       0.51956   0.97588   0.77537 
C          C       0.67925   0.88844   0.62489 
N          N       0.74806   0.72136   0.73583 
C          C       0.63296   0.94778   0.66458 
N          N       0.75803   0.30852   0.84304 
C          C       0.56829   0.92715   0.71868 
N          N       0.52322   0.05917   0.79056 
C          C       0.54712   0.84920   0.72122 
C          C       0.01563   0.48098   0.76743 
C          C       0.59326   0.78779   0.68598 
C          C       0.01417   0.56316   0.75346 
C          C       0.46631   0.92773   0.81240 
C          C       0.07872   0.61210   0.73824 
C          C       0.40551   0.94823   0.88417 
C          C       0.08197   0.43123   0.76086 
C          C       0.35425   0.89079   0.90262 
C          C       0.12969   0.59395   0.63579 
C          C       0.36344   0.81366   0.84840 
C          C       0.19470   0.63141   0.63770 
C          C       0.42830   0.79161   0.78771 
C          C       0.20880   0.69046   0.73964 
C          C       0.47961   0.85013   0.77459 
C          C       0.15456   0.71553   0.83098 
C          C       0.71795   0.75135   0.62207 
C          C       0.09043   0.67672   0.83001 
C          C       0.30324   0.76006   0.85808 
C          C       0.07963   0.35493   0.69994 
C          C       0.94730   0.61013   0.75454 
C          C       0.13947   0.30884   0.68466 
C          C       0.94912   0.43390   0.78642 
C          C       0.20379   0.33595   0.73269 
C          C       0.93494   0.67094   0.65404 
C          C       0.20685   0.40939   0.80132 
C          C       0.86970   0.70794   0.64570 
C          C       0.81525   0.68435   0.73781 
H          H       0.16163   0.76452   0.90437 
C          C       0.82937   0.62904   0.84534 
H          H       0.05087   0.69567   0.90459 
C          C       0.89503   0.59471   0.85537 
H          H       0.03119   0.32964   0.66524 
C          C       0.89057   0.44645   0.69926 
H          H       0.13593   0.25116   0.63549 
C          C       0.82833   0.40667   0.72231 
H          H       0.25498   0.43146   0.84498 
C          C       0.82281   0.35013   0.83072 
H          H       0.15411   0.51187   0.86449 
C          C       0.88222   0.33219   0.91356 
H          H       0.73078   0.90465   0.58877 
C          C       0.94434   0.37416   0.89161 
H          H       0.64858   0.00831   0.65783 
C          C       0.38189   0.23941   0.72744 
H          H       0.57837   0.72683   0.69869 
C          C       0.36316   0.16299   0.67976 
H          H       0.39723   0.00747   0.92178 
C          C       0.40959   0.09975   0.69139 
H          H       0.30586   0.90725   0.95412 
C          C       0.47437   0.11320   0.75347 
H          H       0.43735   0.73228   0.74961 
C          C       0.49575   0.18893   0.78664 
H          H       0.74340   0.74984   0.51737 
C          C       0.45073   0.25345   0.77516 
H          H       0.27494   0.76047   0.95958 
C          C       0.57644   0.10231   0.84552 
H          H       0.97496   0.68840   0.57943 
C          C       0.63830   0.07481   0.90402 
H          H       0.86189   0.75438   0.56708 
C          C       0.68891   0.12905   0.94680 
H          H       0.78938   0.61295   0.92224 
C          C       0.67827   0.21048   0.92811 
H          H       0.90528   0.55355   0.93838 
C          C       0.61318   0.23823   0.87765 
H          H       0.89180   0.48927   0.61656 
C          C       0.56270   0.18215   0.84007 
H          H       0.78400   0.41928   0.65409 
C          C       0.32836   0.30203   0.73773 
H          H       0.88133   0.28623   0.99453 
C          C       0.73873   0.26246   0.94823 
H          H       0.98911   0.36015   0.95589 
H          H       0.11981   0.54575   0.56444 
H          H       0.23468   0.61326   0.56243 
H          H       0.46697   0.31121   0.81102 
H          H       0.60369   0.30048   0.86338 
H          H       0.64834   0.01281   0.91226 
H          H       0.34428   0.36048   0.76968 
H          H       0.73819   0.10738   0.98666 
H          H       0.77241   0.25138   0.54002 
H          H       0.38129   0.04890   0.67824 
H          H       0.31247   0.15476   0.66607 
