data_crystal
 
_cell_length_a    18.48610
_cell_length_b    18.48610
_cell_length_c    3.40000
_cell_angle_alpha 90.00000
_cell_angle_beta  90.00000
_cell_angle_gamma 120.00000
 
_symmetry_space_group_name_Hall 'P 1'
_symmetry_space_group_name_H-M  'P 1'
 
loop_
_symmetry_equiv_pos_as_xyz
 'x,y,z' 
 
loop_
_atom_site_label
_atom_site_type_symbol
_atom_site_fract_x
_atom_site_fract_y
_atom_site_fract_z
_atom_site_charge
C          C       0.42096   0.70094   0.54274   0.0000000000
C          C       0.38128   0.61408   0.47610   0.0000000000
C          C       0.28638   0.69580   0.48886   0.0000000000
C          C       0.37446   0.74324   0.54802   0.0000000000
C          C       0.29428   0.56844   0.41563   0.0000000000
C          C       0.24602   0.60849   0.42389   0.0000000000
C          C       0.50576   0.73582   0.59504   0.0000000000
C          C       0.26273   0.48442   0.35732   0.0000000000
C          C       0.23284   0.72765   0.48663   0.0000000000
N          N       0.56676   0.81281   0.69872   0.0000000000
N          N       0.24866   0.80610   0.56006   0.0000000000
N          N       0.18466   0.42439   0.26185   0.0000000000
C          C       0.68587   0.78922   0.62660   0.0000000000
C          C       0.77290   0.82569   0.60909   0.0000000000
C          C       0.22965   0.92034   0.64040   0.0000000000
C          C       0.17942   0.95718   0.63577   0.0000000000
C          C       0.07274   0.29186   0.13299   0.0000000000
C          C       0.03566   0.20488   0.14781   0.0000000000
C          C       0.20467   0.30399   0.33791   0.0000000000
C          C       0.16619   0.21722   0.36622   0.0000000000
C          C       0.10850   0.78717   0.46085   0.0000000000
C          C       0.05901   0.82500   0.44992   0.0000000000
C          C       0.70045   0.92182   0.83459   0.0000000000
C          C       0.78724   0.95680   0.82866   0.0000000000
H          H       0.65042   0.72726   0.55719   0.0000000000
H          H       0.79682   0.78914   0.51927   0.0000000000
H          H       0.29148   0.95685   0.71145   0.0000000000
H          H       0.03723   0.31733   0.04617   0.0000000000
H          H       0.26693   0.33849   0.40347   0.0000000000
H          H       0.20212   0.19312   0.46205   0.0000000000
H          H       0.08081   0.72486   0.39750   0.0000000000
H          H       0.67622   0.95849   0.92029   0.0000000000
H          H       0.20661   0.01887   0.71055   0.0000000000
H          H       0.97502   0.17072   0.05859   0.0000000000
H          H       0.99753   0.78928   0.37310   0.0000000000
H          H       0.82211   0.01706   0.92238   0.0000000000
C          C       0.04489   0.95043   0.51201   0.0000000000
C          C       0.03932   0.07891   0.37305   0.0000000000
C          C       0.91273   0.95140   0.61136   0.0000000000
C          C       0.19483   0.83499   0.55144   0.0000000000
C          C       0.15693   0.34216   0.24126   0.0000000000
C          C       0.64875   0.83827   0.72040   0.0000000000
C          C       0.09356   0.91095   0.53377   0.0000000000
C          C       0.07996   0.16552   0.28663   0.0000000000
C          C       0.82578   0.91146   0.69217   0.0000000000
C          C       0.08128   0.03299   0.36810   0.0000000000
C          C       0.95492   0.03560   0.48852   0.0000000000
C          C       0.96030   0.91077   0.63281   0.0000000000
H          H       0.93327   0.85167   0.74406   0.0000000000
H          H       0.14011   0.06043   0.25428   0.0000000000
H          H       0.92295   0.06687   0.48246   0.0000000000
