data_crystal
 
_cell_length_a    27.21610
_cell_length_b    27.21610
_cell_length_c    7.44040
_cell_angle_alpha 90.00000
_cell_angle_beta  90.00000
_cell_angle_gamma 120.00000
 
_space_group_name_Hall 'P 1'
_space_group_name_H-M_alt  'P 1'
 
loop_
_symmetry_equiv_pos_as_xyz
 'x,y,z' 
 
loop_
_atom_site_label
_atom_site_type_symbol
_atom_site_fract_x
_atom_site_fract_y
_atom_site_fract_z
C          C       0.28669   0.61366   0.25693 
N          N       0.28085   0.66038   0.25898 
O          O       0.44204   0.68208   0.25494 
C          C       0.36207   0.81709   0.24566 
C          C       0.34854   0.85811   0.30134 
C          C       0.38836   0.91598   0.29214 
C          C       0.44324   0.93423   0.22722 
C          C       0.45699   0.89373   0.16800 
C          C       0.41657   0.83578   0.17269 
C          C       0.48632   0.99501   0.21682 
N          N       0.47394   0.03421   0.25298 
C          C       0.51374   0.09405   0.24704 
C          C       0.49362   0.13180   0.27355 
C          C       0.53073   0.19042   0.26965 
C          C       0.58912   0.21254   0.24053 
C          C       0.60937   0.17456   0.21452 
C          C       0.57208   0.11587   0.21713 
C          C       0.62861   0.27474   0.23840 
N          N       0.60828   0.31119   0.23841 
H          H       0.30657   0.84490   0.35320 
H          H       0.37634   0.94628   0.33769 
H          H       0.49860   0.90712   0.11241 
H          H       0.42811   0.80713   0.11131 
H          H       0.44888   0.11566   0.29739 
H          H       0.51367   0.21835   0.29115 
H          H       0.65403   0.19013   0.19114 
H          H       0.58888   0.08770   0.19644 
C          C       0.38634   0.67303   0.25693 
N          N       0.33962   0.62047   0.25898 
O          O       0.31792   0.75996   0.25494 
C          C       0.18291   0.54498   0.24566 
C          C       0.14189   0.49043   0.30134 
C          C       0.08402   0.47238   0.29214 
C          C       0.06577   0.50901   0.22722 
C          C       0.10627   0.56326   0.16800 
C          C       0.16422   0.58079   0.17269 
C          C       0.00499   0.49131   0.21682 
N          N       0.96579   0.43973   0.25298 
C          C       0.90595   0.41969   0.24704 
C          C       0.86820   0.36182   0.27355 
C          C       0.80958   0.34031   0.26965 
C          C       0.78746   0.37658   0.24053 
C          C       0.82544   0.43481   0.21452 
C          C       0.88413   0.45621   0.21713 
C          C       0.72526   0.35387   0.23840 
N          N       0.68881   0.29709   0.23841 
H          H       0.15510   0.46167   0.35320 
H          H       0.05372   0.43006   0.33769 
H          H       0.09288   0.59148   0.11241 
H          H       0.19287   0.62098   0.11131 
H          H       0.88434   0.33322   0.29739 
H          H       0.78165   0.29532   0.29115 
H          H       0.80987   0.46390   0.19114 
H          H       0.91230   0.50118   0.19644 
C          C       0.32697   0.71331   0.25693 
N          N       0.37953   0.71915   0.25898 
O          O       0.24004   0.55796   0.25494 
C          C       0.45502   0.63793   0.24566 
C          C       0.50957   0.65146   0.30134 
C          C       0.52762   0.61164   0.29214 
C          C       0.49099   0.55676   0.22722 
C          C       0.43674   0.54301   0.16800 
C          C       0.41921   0.58343   0.17269 
C          C       0.50869   0.51368   0.21682 
N          N       0.56027   0.52606   0.25298 
C          C       0.58031   0.48626   0.24704 
C          C       0.63818   0.50638   0.27355 
C          C       0.65969   0.46927   0.26965 
C          C       0.62342   0.41088   0.24053 
C          C       0.56519   0.39063   0.21452 
C          C       0.54379   0.42792   0.21713 
C          C       0.64613   0.37139   0.23840 
N          N       0.70291   0.39172   0.23841 
H          H       0.53833   0.69343   0.35320 
H          H       0.56994   0.62366   0.33769 
H          H       0.40852   0.50140   0.11241 
H          H       0.37902   0.57189   0.11131 
H          H       0.66678   0.55112   0.29739 
H          H       0.70468   0.48633   0.29115 
H          H       0.53610   0.34597   0.19114 
H          H       0.49882   0.41112   0.19644 
C          C       0.28669   0.61366   0.75692 
N          N       0.28085   0.66038   0.75898 
O          O       0.44204   0.68208   0.75494 
C          C       0.36207   0.81709   0.74567 
C          C       0.34854   0.85811   0.80134 
C          C       0.38836   0.91598   0.79214 
C          C       0.44324   0.93423   0.72722 
C          C       0.45699   0.89373   0.66800 
C          C       0.41657   0.83578   0.67269 
C          C       0.48632   0.99501   0.71682 
N          N       0.47394   0.03421   0.75298 
C          C       0.51374   0.09405   0.74704 
C          C       0.49362   0.13180   0.77355 
C          C       0.53073   0.19042   0.76965 
C          C       0.58912   0.21254   0.74053 
C          C       0.60937   0.17456   0.71452 
C          C       0.57208   0.11587   0.71713 
C          C       0.62861   0.27474   0.73840 
N          N       0.60828   0.31119   0.73841 
H          H       0.30657   0.84490   0.85320 
H          H       0.37634   0.94628   0.83769 
H          H       0.49860   0.90712   0.61241 
H          H       0.42811   0.80713   0.61131 
H          H       0.44888   0.11566   0.79739 
H          H       0.51367   0.21835   0.79115 
H          H       0.65403   0.19013   0.69114 
H          H       0.58888   0.08770   0.69644 
C          C       0.38634   0.67303   0.75692 
N          N       0.33962   0.62047   0.75898 
O          O       0.31792   0.75996   0.75494 
C          C       0.18291   0.54498   0.74567 
C          C       0.14189   0.49043   0.80134 
C          C       0.08402   0.47238   0.79214 
C          C       0.06577   0.50901   0.72722 
C          C       0.10627   0.56326   0.66800 
C          C       0.16422   0.58079   0.67269 
C          C       0.00499   0.49131   0.71682 
N          N       0.96579   0.43973   0.75298 
C          C       0.90595   0.41969   0.74704 
C          C       0.86820   0.36182   0.77355 
C          C       0.80958   0.34031   0.76965 
C          C       0.78746   0.37658   0.74053 
C          C       0.82544   0.43481   0.71452 
C          C       0.88413   0.45621   0.71713 
C          C       0.72526   0.35387   0.73840 
N          N       0.68881   0.29709   0.73841 
H          H       0.15510   0.46167   0.85320 
H          H       0.05372   0.43006   0.83769 
H          H       0.09288   0.59148   0.61241 
H          H       0.19287   0.62098   0.61131 
H          H       0.88434   0.33322   0.79739 
H          H       0.78165   0.29532   0.79115 
H          H       0.80987   0.46390   0.69114 
H          H       0.91230   0.50118   0.69644 
C          C       0.32697   0.71331   0.75692 
N          N       0.37953   0.71915   0.75898 
O          O       0.24004   0.55796   0.75494 
C          C       0.45502   0.63793   0.74567 
C          C       0.50957   0.65146   0.80134 
C          C       0.52762   0.61164   0.79214 
C          C       0.49099   0.55676   0.72722 
C          C       0.43674   0.54301   0.66800 
C          C       0.41921   0.58343   0.67269 
C          C       0.50869   0.51368   0.71682 
N          N       0.56027   0.52606   0.75298 
C          C       0.58031   0.48626   0.74704 
C          C       0.63818   0.50638   0.77355 
C          C       0.65969   0.46927   0.76965 
C          C       0.62342   0.41088   0.74053 
C          C       0.56519   0.39063   0.71452 
C          C       0.54379   0.42792   0.71713 
C          C       0.64613   0.37139   0.73840 
N          N       0.70291   0.39172   0.73841 
H          H       0.53833   0.69343   0.85320 
H          H       0.56994   0.62366   0.83769 
H          H       0.40852   0.50140   0.61241 
H          H       0.37902   0.57189   0.61131 
H          H       0.66678   0.55112   0.79739 
H          H       0.70468   0.48633   0.79115 
H          H       0.53610   0.34597   0.69114 
H          H       0.49882   0.41112   0.69644 
H          H       0.47755   0.47755   0.21682 
H          H       0.52180   0.99520   0.21682 
H          H       0.00052   0.52866   0.21682 
H          H       0.47398   0.47619   0.72239 
H          H       0.52498   1.00199   0.72660 
H          H      -0.00637   0.52084   0.71611 
