data_crystal

_cell_length_a    40.34900
_cell_length_b    40.34900
_cell_length_c    15.84300
_cell_angle_alpha 90.00000
_cell_angle_beta  90.00000
_cell_angle_gamma 120.00000

_space_group_name_Hall 'P 1'
_space_group_name_H-M_alt  'P 1'

loop_
_symmetry_equiv_pos_as_xyz
'x,y,z'

loop_
_atom_site_label
_atom_site_type_symbol
_atom_site_fract_x
_atom_site_fract_y
_atom_site_fract_z
P          P       0.66731   0.33381   0.36422
P          P       0.33269   0.66619   0.36422
C          C       0.65247   0.36048   0.35141
C          C       0.63952   0.29199   0.35141
C          C       0.70801   0.34753   0.35141
C          C       0.34753   0.63952   0.35141
C          C       0.36048   0.70801   0.35141
C          C       0.29199   0.65247   0.35141
C          C       0.62574   0.35060   0.28641
C          C       0.64940   0.27514   0.28641
C          C       0.72486   0.37426   0.28641
C          C       0.37426   0.64940   0.28641
C          C       0.35060   0.72486   0.28641
C          C       0.27514   0.62574   0.28641
H          H       0.61735   0.32402   0.24660
H          H       0.67598   0.29333   0.24660
H          H       0.70667   0.38265   0.24660
H          H       0.38265   0.67598   0.24660
H          H       0.32402   0.70667   0.24660
H          H       0.29333   0.61735   0.24660
C          C       0.60935   0.37315   0.27018
C          C       0.62685   0.23620   0.27018
C          C       0.76380   0.39065   0.27018
C          C       0.39065   0.62685   0.27018
C          C       0.37315   0.76380   0.27018
C          C       0.23620   0.60935   0.27018
H          H       0.58773   0.36519   0.21677
H          H       0.63481   0.22254   0.21677
H          H       0.77746   0.41227   0.21677
H          H       0.41227   0.63481   0.21677
H          H       0.36519   0.77746   0.21677
H          H       0.22254   0.58773   0.21677
C          C       0.61950   0.40552   0.31956
C          C       0.59448   0.21398   0.31956
C          C       0.78602   0.38050   0.31956
C          C       0.38050   0.59448   0.31956
C          C       0.40552   0.78602   0.31956
C          C       0.21398   0.61950   0.31956
C          C       0.64527   0.41481   0.38599
C          C       0.58519   0.23046   0.38599
C          C       0.76954   0.35473   0.38599
C          C       0.35473   0.58519   0.38599
C          C       0.41481   0.76954   0.38599
C          C       0.23046   0.64527   0.38599
H          H       0.65273   0.44075   0.42730
H          H       0.55925   0.21198   0.42730
H          H       0.78802   0.34727   0.42730
H          H       0.34727   0.55925   0.42730
H          H       0.44075   0.78802   0.42730
H          H       0.21198   0.65273   0.42730
C          C       0.66189   0.39248   0.40198
C          C       0.60752   0.26941   0.40198
C          C       0.73059   0.33811   0.40198
C          C       0.33811   0.60752   0.40198
C          C       0.39248   0.73059   0.40198
C          C       0.26941   0.66189   0.40198
H          H       0.68314   0.40012   0.45607
H          H       0.59988   0.28302   0.45607
H          H       0.71698   0.31686   0.45607
H          H       0.31686   0.59988   0.45607
H          H       0.40012   0.71698   0.45607
H          H       0.28302   0.68314   0.45607
C          C       0.60336   0.43080   0.30211
C          C       0.56920   0.17256   0.30211
C          C       0.82744   0.39664   0.30211
C          C       0.39664   0.56920   0.30211
C          C       0.43080   0.82744   0.30211
C          C       0.17256   0.60336   0.30211
H          H       0.61047   0.45603   0.34551
H          H       0.54397   0.15444   0.34551
H          H       0.84556   0.38953   0.34551
H          H       0.38953   0.54397   0.34551
H          H       0.45603   0.84556   0.34551
H          H       0.15444   0.61047   0.34551
N          N       0.57730   0.42555   0.22873
N          N       0.57445   0.15175   0.22873
N          N       0.84825   0.42270   0.22873
N          N       0.42270   0.57445   0.22873
N          N       0.42555   0.84825   0.22873
N          N       0.15175   0.57730   0.22873
C          C       0.55486   0.44630   0.22611
C          C       0.55370   0.10856   0.22611
C          C       0.89144   0.44514   0.22611
C          C       0.44514   0.55370   0.22611
C          C       0.44630   0.89144   0.22611
C          C       0.10856   0.55486   0.22611
C          C       0.57353   0.48817   0.25587
C          C       0.51183   0.08536   0.25587
C          C       0.91464   0.42647   0.25587
C          C       0.42647   0.51183   0.25587
C          C       0.48817   0.91464   0.25587
C          C       0.08536   0.57353   0.25587
C          C       0.55065   0.50934   0.25321
C          C       0.49066   0.04131   0.25321
C          C       0.95869   0.44935   0.25321
C          C       0.44935   0.49066   0.25321
C          C       0.50934   0.95869   0.25321
C          C       0.04131   0.55065   0.25321
C          C       0.50911   0.48863   0.22078
C          C       0.51137   0.02048   0.22078
C          C       0.97952   0.49089   0.22078
C          C       0.49089   0.51137   0.22078
C          C       0.48863   0.97952   0.22078
C          C       0.02048   0.50911   0.22078
C          C       0.49044   0.44676   0.19101
C          C       0.55324   0.04368   0.19101
C          C       0.95632   0.50956   0.19101
C          C       0.50956   0.55324   0.19101
C          C       0.44676   0.95632   0.19101
C          C       0.04368   0.49044   0.19101
C          C       0.51332   0.42559   0.19368
C          C       0.57441   0.08773   0.19368
C          C       0.91227   0.48668   0.19368
C          C       0.48668   0.57441   0.19368
C          C       0.42559   0.91227   0.19368
C          C       0.08773   0.51332   0.19368
H          H       0.60428   0.50350   0.27987
H          H       0.49650   0.10078   0.27987
H          H       0.89922   0.39572   0.27987
H          H       0.39572   0.49650   0.27987
H          H       0.50350   0.89922   0.27987
H          H       0.10078   0.60428   0.27987
H          H       0.56447   0.54033   0.27524
H          H       0.45967   0.02414   0.27524
H          H       0.97586   0.43553   0.27524
H          H       0.43553   0.45967   0.27524
H          H       0.54033   0.97586   0.27524
H          H       0.02414   0.56447   0.27524
H          H       0.45968   0.43143   0.16701
H          H       0.56857   0.02825   0.16701
H          H       0.97175   0.54032   0.16701
H          H       0.54032   0.56857   0.16701
H          H       0.43143   0.97175   0.16701
H          H       0.02825   0.45968   0.16701
H          H       0.49950   0.39460   0.17165
H          H       0.60540   0.10490   0.17165
H          H       0.89510   0.50050   0.17165
H          H       0.50050   0.60540   0.17165
H          H       0.39460   0.89510   0.17165
H          H       0.10490   0.49950   0.17165
P          P       0.66731   0.33381   0.86422
P          P       0.33269   0.66619   0.86422
C          C       0.65247   0.36048   0.85141
C          C       0.63952   0.29199   0.85141
C          C       0.70801   0.34753   0.85141
C          C       0.34753   0.63952   0.85141
C          C       0.36048   0.70801   0.85141
C          C       0.29199   0.65247   0.85141
C          C       0.62574   0.35060   0.78641
C          C       0.64940   0.27514   0.78641
C          C       0.72486   0.37426   0.78641
C          C       0.37426   0.64940   0.78641
C          C       0.35060   0.72486   0.78641
C          C       0.27514   0.62574   0.78641
H          H       0.61735   0.32402   0.74661
H          H       0.67598   0.29333   0.74661
H          H       0.70667   0.38265   0.74661
H          H       0.38265   0.67598   0.74661
H          H       0.32402   0.70667   0.74661
H          H       0.29333   0.61735   0.74661
C          C       0.60935   0.37315   0.77018
C          C       0.62685   0.23620   0.77018
C          C       0.76380   0.39065   0.77018
C          C       0.39065   0.62685   0.77018
C          C       0.37315   0.76380   0.77018
C          C       0.23620   0.60935   0.77018
H          H       0.58773   0.36519   0.71677
H          H       0.63481   0.22254   0.71677
H          H       0.77746   0.41227   0.71677
H          H       0.41227   0.63481   0.71677
H          H       0.36519   0.77746   0.71677
H          H       0.22254   0.58773   0.71677
C          C       0.61950   0.40552   0.81957
C          C       0.59448   0.21398   0.81957
C          C       0.78602   0.38050   0.81957
C          C       0.38050   0.59448   0.81957
C          C       0.40552   0.78602   0.81957
C          C       0.21398   0.61950   0.81957
C          C       0.64527   0.41481   0.88599
C          C       0.58519   0.23046   0.88599
C          C       0.76954   0.35473   0.88599
C          C       0.35473   0.58519   0.88599
C          C       0.41481   0.76954   0.88599
C          C       0.23046   0.64527   0.88599
H          H       0.65273   0.44075   0.92730
H          H       0.55925   0.21198   0.92730
H          H       0.78802   0.34727   0.92730
H          H       0.34727   0.55925   0.92730
H          H       0.44075   0.78802   0.92730
H          H       0.21198   0.65273   0.92730
C          C       0.66189   0.39248   0.90199
C          C       0.60752   0.26941   0.90199
C          C       0.73059   0.33811   0.90199
C          C       0.33811   0.60752   0.90199
C          C       0.39248   0.73059   0.90199
C          C       0.26941   0.66189   0.90199
H          H       0.68314   0.40012   0.95607
H          H       0.59988   0.28302   0.95607
H          H       0.71698   0.31686   0.95607
H          H       0.31686   0.59988   0.95607
H          H       0.40012   0.71698   0.95607
H          H       0.28302   0.68314   0.95607
C          C       0.60336   0.43080   0.80211
C          C       0.56920   0.17256   0.80211
C          C       0.82744   0.39664   0.80211
C          C       0.39664   0.56920   0.80211
C          C       0.43080   0.82744   0.80211
C          C       0.17256   0.60336   0.80211
H          H       0.61047   0.45603   0.84551
H          H       0.54397   0.15444   0.84551
H          H       0.84556   0.38953   0.84551
H          H       0.38953   0.54397   0.84551
H          H       0.45603   0.84556   0.84551
H          H       0.15444   0.61047   0.84551
N          N       0.57730   0.42555   0.72873
N          N       0.57445   0.15175   0.72873
N          N       0.84825   0.42270   0.72873
N          N       0.42270   0.57445   0.72873
N          N       0.42555   0.84825   0.72873
N          N       0.15175   0.57730   0.72873
C          C       0.55486   0.44630   0.72611
C          C       0.55370   0.10856   0.72611
C          C       0.89144   0.44514   0.72611
C          C       0.44514   0.55370   0.72611
C          C       0.44630   0.89144   0.72611
C          C       0.10856   0.55486   0.72611
C          C       0.57353   0.48817   0.75587
C          C       0.51183   0.08536   0.75587
C          C       0.91464   0.42647   0.75587
C          C       0.42647   0.51183   0.75587
C          C       0.48817   0.91464   0.75587
C          C       0.08536   0.57353   0.75587
C          C       0.55065   0.50934   0.75321
C          C       0.49066   0.04131   0.75321
C          C       0.95869   0.44935   0.75321
C          C       0.44935   0.49066   0.75321
C          C       0.50934   0.95869   0.75321
C          C       0.04131   0.55065   0.75321
C          C       0.50911   0.48863   0.72078
C          C       0.51137   0.02048   0.72078
C          C       0.97952   0.49089   0.72078
C          C       0.49089   0.51137   0.72078
C          C       0.48863   0.97952   0.72078
C          C       0.02048   0.50911   0.72078
C          C       0.49044   0.44676   0.69102
C          C       0.55324   0.04368   0.69102
C          C       0.95632   0.50956   0.69102
C          C       0.50956   0.55324   0.69102
C          C       0.44676   0.95632   0.69102
C          C       0.04368   0.49044   0.69102
C          C       0.51332   0.42559   0.69368
C          C       0.57441   0.08773   0.69368
C          C       0.91227   0.48668   0.69368
C          C       0.48668   0.57441   0.69368
C          C       0.42559   0.91227   0.69368
C          C       0.08773   0.51332   0.69368
H          H       0.60428   0.50350   0.77988
H          H       0.49650   0.10078   0.77988
H          H       0.89922   0.39572   0.77988
H          H       0.39572   0.49650   0.77988
H          H       0.50350   0.89922   0.77988
H          H       0.10078   0.60428   0.77988
H          H       0.56447   0.54033   0.77524
H          H       0.45967   0.02414   0.77524
H          H       0.97586   0.43553   0.77524
H          H       0.43553   0.45967   0.77524
H          H       0.54033   0.97586   0.77524
H          H       0.02414   0.56447   0.77524
H          H       0.45968   0.43143   0.66701
H          H       0.56857   0.02825   0.66701
H          H       0.97175   0.54032   0.66701
H          H       0.54032   0.56857   0.66701
H          H       0.43143   0.97175   0.66701
H          H       0.02825   0.45968   0.66701
H          H       0.49950   0.39460   0.67165
H          H       0.60540   0.10490   0.67165
H          H       0.89510   0.50050   0.67165
H          H       0.50050   0.60540   0.67165
H          H       0.39460   0.89510   0.67165
H          H       0.10490   0.49950   0.67165
