data_crystal

_cell_length_a    32.54900
_cell_length_b    32.54900
_cell_length_c    15.84300
_cell_angle_alpha 90.00000
_cell_angle_beta  90.00000
_cell_angle_gamma 120.00000

_space_group_name_Hall 'P 1'
_space_group_name_H-M_alt  'P 1'

loop_
_symmetry_equiv_pos_as_xyz
'x,y,z'

loop_
_atom_site_label
_atom_site_type_symbol
_atom_site_fract_x
_atom_site_fract_y
_atom_site_fract_z
P          P       0.66656   0.33399   0.33948
P          P       0.33344   0.66601   0.33948
C          C       0.63023   0.27044   0.32692
C          C       0.72956   0.35979   0.32692
C          C       0.64021   0.36977   0.32692
C          C       0.36977   0.72956   0.32692
C          C       0.27044   0.64021   0.32692
C          C       0.35979   0.63023   0.32692
C          C       0.64171   0.24877   0.26219
C          C       0.75123   0.39294   0.26219
C          C       0.60706   0.35829   0.26219
C          C       0.35829   0.75123   0.26219
C          C       0.24877   0.60706   0.26219
C          C       0.39294   0.64171   0.26219
H          H       0.66934   0.26699   0.22904
H          H       0.73301   0.40235   0.22904
H          H       0.59765   0.33066   0.22904
H          H       0.33066   0.73301   0.22904
H          H       0.26699   0.59765   0.22904
H          H       0.40235   0.66934   0.22904
C          C       0.61276   0.20059   0.24619
C          C       0.79941   0.41217   0.24619
C          C       0.58783   0.38724   0.24619
C          C       0.38724   0.79941   0.24619
C          C       0.20059   0.58783   0.24619
C          C       0.41217   0.61276   0.24619
H          H       0.62044   0.18590   0.20187
H          H       0.81410   0.43454   0.20187
H          H       0.56546   0.37956   0.20187
H          H       0.37956   0.81410   0.20187
H          H       0.18590   0.56546   0.20187
H          H       0.43454   0.62044   0.20187
C          C       0.57240   0.17393   0.29558
C          C       0.82607   0.39847   0.29558
C          C       0.60153   0.42760   0.29558
C          C       0.42760   0.82607   0.29558
C          C       0.17393   0.60153   0.29558
C          C       0.39847   0.57240   0.29558
C          C       0.56163   0.19511   0.36175
C          C       0.80489   0.36652   0.36175
C          C       0.63348   0.43837   0.36175
C          C       0.43837   0.80489   0.36175
C          C       0.19511   0.63348   0.36175
C          C       0.36652   0.56163   0.36175
H          H       0.53463   0.17657   0.39618
H          H       0.82343   0.35806   0.39618
H          H       0.64194   0.46537   0.39618
H          H       0.46537   0.82343   0.39618
H          H       0.17657   0.64194   0.39618
H          H       0.35806   0.53463   0.39618
C          C       0.59031   0.24331   0.37750
C          C       0.75669   0.34700   0.37750
C          C       0.65300   0.40969   0.37750
C          C       0.40969   0.75669   0.37750
C          C       0.24331   0.65300   0.37750
C          C       0.34700   0.59031   0.37750
H          H       0.58287   0.25783   0.42239
H          H       0.74217   0.32504   0.42239
H          H       0.67496   0.41713   0.42239
H          H       0.41713   0.74217   0.42239
H          H       0.25783   0.67496   0.42239
H          H       0.32504   0.58287   0.42239
C          C       0.54003   0.12273   0.27837
C          C       0.87727   0.41730   0.27837
C          C       0.58270   0.45997   0.27837
C          C       0.45997   0.87727   0.27837
C          C       0.12273   0.58270   0.27837
C          C       0.41730   0.54003   0.27837
H          H       0.51413   0.10558   0.31574
H          H       0.89442   0.40855   0.31574
H          H       0.59145   0.48587   0.31574
H          H       0.48587   0.89442   0.31574
H          H       0.10558   0.59145   0.31574
H          H       0.40855   0.51413   0.31574
N          N       0.54572   0.09624   0.20525
N          N       0.90376   0.44948   0.20525
N          N       0.55052   0.45428   0.20525
N          N       0.45428   0.90376   0.20525
N          N       0.09624   0.55052   0.20525
N          N       0.44948   0.54572   0.20525
C          C       0.48158   0.96963   0.27502
C          C       0.03037   0.51195   0.27502
C          C       0.48805   0.51842   0.27502
C          C       0.51842   0.03037   0.27502
C          C       0.96963   0.48805   0.27502
C          C       0.51195   0.48158   0.27502
H          H       0.47188   0.94974   0.33348
H          H       0.05026   0.52214   0.33348
H          H       0.47786   0.52812   0.33348
H          H       0.52812   0.05026   0.33348
H          H       0.94974   0.47786   0.33348
H          H       0.52214   0.47188   0.33348
C          C       0.46883   0.94590   0.19726
C          C       0.05410   0.52293   0.19726
C          C       0.47707   0.53117   0.19726
C          C       0.53117   0.05410   0.19726
C          C       0.94590   0.47707   0.19726
C          C       0.52293   0.46883   0.19726
C          C       0.48168   0.97222   0.12215
C          C       0.02778   0.50946   0.12215
C          C       0.49054   0.51832   0.12215
C          C       0.51832   0.02778   0.12215
C          C       0.97222   0.49054   0.12215
C          C       0.50946   0.48168   0.12215
H          H       0.51674   0.04170   0.06633
H          H       0.95830   0.47504   0.06633
H          H       0.52496   0.48326   0.06633
H          H       0.48326   0.95830   0.06633
H          H       0.04170   0.52496   0.06633
H          H       0.47504   0.51674   0.06633
P          P       0.66656   0.33399   0.83948
P          P       0.33344   0.66601   0.83948
C          C       0.63023   0.27044   0.82692
C          C       0.72956   0.35979   0.82692
C          C       0.64021   0.36977   0.82692
C          C       0.36977   0.72956   0.82692
C          C       0.27044   0.64021   0.82692
C          C       0.35979   0.63023   0.82692
C          C       0.64171   0.24877   0.76219
C          C       0.75123   0.39294   0.76219
C          C       0.60706   0.35829   0.76219
C          C       0.35829   0.75123   0.76219
C          C       0.24877   0.60706   0.76219
C          C       0.39294   0.64171   0.76219
H          H       0.66934   0.26699   0.72904
H          H       0.73301   0.40235   0.72904
H          H       0.59765   0.33066   0.72904
H          H       0.33066   0.73301   0.72904
H          H       0.26699   0.59765   0.72904
H          H       0.40235   0.66934   0.72904
C          C       0.61276   0.20059   0.74620
C          C       0.79941   0.41217   0.74620
C          C       0.58783   0.38724   0.74620
C          C       0.38724   0.79941   0.74620
C          C       0.20059   0.58783   0.74620
C          C       0.41217   0.61276   0.74620
H          H       0.62044   0.18590   0.70187
H          H       0.81410   0.43454   0.70187
H          H       0.56546   0.37956   0.70187
H          H       0.37956   0.81410   0.70187
H          H       0.18590   0.56546   0.70187
H          H       0.43454   0.62044   0.70187
C          C       0.57240   0.17393   0.79558
C          C       0.82607   0.39847   0.79558
C          C       0.60153   0.42760   0.79558
C          C       0.42760   0.82607   0.79558
C          C       0.17393   0.60153   0.79558
C          C       0.39847   0.57240   0.79558
C          C       0.56163   0.19511   0.86175
C          C       0.80489   0.36652   0.86175
C          C       0.63348   0.43837   0.86175
C          C       0.43837   0.80489   0.86175
C          C       0.19511   0.63348   0.86175
C          C       0.36652   0.56163   0.86175
H          H       0.53463   0.17657   0.89618
H          H       0.82343   0.35806   0.89618
H          H       0.64194   0.46537   0.89618
H          H       0.46537   0.82343   0.89618
H          H       0.17657   0.64194   0.89618
H          H       0.35806   0.53463   0.89618
C          C       0.59031   0.24331   0.87750
C          C       0.75669   0.34700   0.87750
C          C       0.65300   0.40969   0.87750
C          C       0.40969   0.75669   0.87750
C          C       0.24331   0.65300   0.87750
C          C       0.34700   0.59031   0.87750
H          H       0.58287   0.25783   0.92239
H          H       0.74217   0.32504   0.92239
H          H       0.67496   0.41713   0.92239
H          H       0.41713   0.74217   0.92239
H          H       0.25783   0.67496   0.92239
H          H       0.32504   0.58287   0.92239
C          C       0.54003   0.12273   0.77837
C          C       0.87727   0.41730   0.77837
C          C       0.58270   0.45997   0.77837
C          C       0.45997   0.87727   0.77837
C          C       0.12273   0.58270   0.77837
C          C       0.41730   0.54003   0.77837
H          H       0.51413   0.10558   0.81574
H          H       0.89442   0.40855   0.81574
H          H       0.59145   0.48587   0.81574
H          H       0.48587   0.89442   0.81574
H          H       0.10558   0.59145   0.81574
H          H       0.40855   0.51413   0.81574
N          N       0.54572   0.09624   0.70525
N          N       0.90376   0.44948   0.70525
N          N       0.55052   0.45428   0.70525
N          N       0.45428   0.90376   0.70525
N          N       0.09624   0.55052   0.70525
N          N       0.44948   0.54572   0.70525
C          C       0.48158   0.96963   0.77502
C          C       0.03037   0.51195   0.77502
C          C       0.48805   0.51842   0.77502
C          C       0.51842   0.03037   0.77502
C          C       0.96963   0.48805   0.77502
C          C       0.51195   0.48158   0.77502
H          H       0.47188   0.94974   0.83348
H          H       0.05026   0.52214   0.83348
H          H       0.47786   0.52812   0.83348
H          H       0.52812   0.05026   0.83348
H          H       0.94974   0.47786   0.83348
H          H       0.52214   0.47188   0.83348
C          C       0.46883   0.94590   0.69726
C          C       0.05410   0.52293   0.69726
C          C       0.47707   0.53117   0.69726
C          C       0.53117   0.05410   0.69726
C          C       0.94590   0.47707   0.69726
C          C       0.52293   0.46883   0.69726
C          C       0.48168   0.97222   0.62216
C          C       0.02778   0.50946   0.62216
C          C       0.49054   0.51832   0.62216
C          C       0.51832   0.02778   0.62216
C          C       0.97222   0.49054   0.62216
C          C       0.50946   0.48168   0.62216
H          H       0.51674   0.04170   0.56633
H          H       0.95830   0.47504   0.56633
H          H       0.52496   0.48326   0.56633
H          H       0.48326   0.95830   0.56633
H          H       0.04170   0.52496   0.56633
H          H       0.47504   0.51674   0.56633
