data_crystal

_cell_length_a    43.04520
_cell_length_b    43.04520
_cell_length_c    6.72780
_cell_angle_alpha 90.00000
_cell_angle_beta  90.00000
_cell_angle_gamma 120.00000

_space_group_name_Hall 'P 1'
_space_group_name_H-M_alt  'P 1'

loop_
_symmetry_equiv_pos_as_xyz
 'x,y,z'

loop_
_atom_site_label
_atom_site_type_symbol
_atom_site_fract_x
_atom_site_fract_y
_atom_site_fract_z
N          N       0.31561   0.69036   0.25000
N          N       0.30964   0.62525   0.25000
N          N       0.37475   0.68439   0.25000
N          N       0.68439   0.30964   0.25000
N          N       0.69036   0.37475   0.25000
N          N       0.62525   0.31561   0.25000
C          C       0.29163   0.64882   0.25000
C          C       0.35118   0.64281   0.25000
C          C       0.35719   0.70837   0.25000
C          C       0.70837   0.35118   0.25000
C          C       0.64882   0.35719   0.25000
C          C       0.64281   0.29163   0.25000
C          C       0.38322   0.75390   0.25000
C          C       0.24610   0.62932   0.25000
C          C       0.37068   0.61678   0.25000
C          C       0.61678   0.24610   0.25000
C          C       0.75390   0.37068   0.25000
C          C       0.62932   0.38322   0.25000
C          C       0.34713   0.57442   0.25000
C          C       0.42558   0.77271   0.25000
C          C       0.22729   0.65287   0.25000
C          C       0.65287   0.42558   0.25000
C          C       0.57442   0.22729   0.25000
C          C       0.77271   0.34713   0.25000
C          C       0.36572   0.55005   0.25000
C          C       0.44995   0.81567   0.25000
C          C       0.18433   0.63428   0.25000
C          C       0.63428   0.44995   0.25000
C          C       0.55005   0.18433   0.25000
C          C       0.81567   0.36572   0.25000
C          C       0.40806   0.56744   0.25000
C          C       0.43256   0.84062   0.25000
C          C       0.15938   0.59194   0.25000
C          C       0.59194   0.43256   0.25000
C          C       0.56744   0.15938   0.25000
C          C       0.84062   0.40806   0.25000
C          C       0.43141   0.60938   0.25000
C          C       0.39062   0.82203   0.25000
C          C       0.17797   0.56859   0.25000
C          C       0.56859   0.39062   0.25000
C          C       0.60938   0.17797   0.25000
C          C       0.82203   0.43141   0.25000
C          C       0.41304   0.63398   0.25000
C          C       0.36602   0.77906   0.25000
C          C       0.22094   0.58696   0.25000
C          C       0.58696   0.36602   0.25000
C          C       0.63398   0.22094   0.25000
C          C       0.77906   0.41304   0.25000
N          N       0.11537   0.57394   0.25000
N          N       0.42606   0.54143   0.25000
N          N       0.45857   0.88463   0.25000
N          N       0.88463   0.42606   0.25000
N          N       0.57394   0.45857   0.25000
N          N       0.54143   0.11537   0.25000
C          C       0.46495   0.55381   0.25000
C          C       0.44619   0.91114   0.25000
C          C       0.08886   0.53505   0.25000
C          C       0.53505   0.44619   0.25000
C          C       0.55381   0.08886   0.25000
C          C       0.91114   0.46495   0.25000
C          C       0.48247   0.52585   0.25000
C          C       0.47415   0.95662   0.25000
C          C       0.04338   0.51753   0.25000
C          C       0.51753   0.47415   0.25000
C          C       0.52585   0.04338   0.25000
C          C       0.95662   0.48247   0.25000
C          C       0.45727   0.48272   0.25000
C          C       0.51728   0.97455   0.25000
C          C       0.02545   0.54273   0.25000
C          C       0.54273   0.51728   0.25000
C          C       0.48272   0.02545   0.25000
C          C       0.97455   0.45727   0.25000
C          C       0.47465   0.45725   0.25000
C          C       0.54275   0.01740   0.25000
C          C       0.98260   0.52535   0.25000
C          C       0.52535   0.54275   0.25000
C          C       0.45725   0.98260   0.25000
C          C       0.01740   0.47465   0.25000
O          O       0.89740   0.48582   0.25000
O          O       0.51418   0.41158   0.25000
O          O       0.58842   0.10260   0.25000
O          O       0.10260   0.51418   0.25000
O          O       0.48582   0.58842   0.25000
O          O       0.41158   0.89740   0.25000
H          H       0.31444   0.56031   0.25000
H          H       0.43969   0.75413   0.25000
H          H       0.24587   0.68556   0.25000
H          H       0.68556   0.43969   0.25000
H          H       0.56031   0.24587   0.25000
H          H       0.75413   0.31444   0.25000
H          H       0.34729   0.51761   0.25000
H          H       0.48239   0.82968   0.25000
H          H       0.17032   0.65271   0.25000
H          H       0.65271   0.48239   0.25000
H          H       0.51761   0.17032   0.25000
H          H       0.82968   0.34729   0.25000
H          H       0.46366   0.62260   0.25000
H          H       0.37740   0.84106   0.25000
H          H       0.15894   0.53634   0.25000
H          H       0.53634   0.37740   0.25000
H          H       0.62260   0.15894   0.25000
H          H       0.84106   0.46366   0.25000
H          H       0.43177   0.66628   0.25000
H          H       0.33372   0.76549   0.25000
H          H       0.23451   0.56823   0.25000
H          H       0.56823   0.33372   0.25000
H          H       0.66628   0.23451   0.25000
H          H       0.76549   0.43177   0.25000
H          H       0.10345   0.59191   0.25000
H          H       0.40809   0.51154   0.25000
H          H       0.48846   0.89655   0.25000
H          H       0.89655   0.40809   0.25000
H          H       0.59191   0.48846   0.25000
H          H       0.51154   0.10345   0.25000
H          H       0.42426   0.46855   0.25000
H          H       0.53145   0.95571   0.25000
H          H       0.04429   0.57574   0.25000
H          H       0.57574   0.53145   0.25000
H          H       0.46855   0.04429   0.25000
H          H       0.95571   0.42426   0.25000
H          H       0.45472   0.42411   0.25000
H          H       0.57589   0.03061   0.25000
H          H       0.96939   0.54528   0.25000
H          H       0.54528   0.57589   0.25000
H          H       0.42411   0.96939   0.25000
H          H       0.03061   0.45472   0.25000
N          N       0.31561   0.69036   0.75000
N          N       0.30964   0.62525   0.75000
N          N       0.37475   0.68439   0.75000
N          N       0.68439   0.30964   0.75000
N          N       0.69036   0.37475   0.75000
N          N       0.62525   0.31561   0.75000
C          C       0.29163   0.64882   0.75000
C          C       0.35118   0.64281   0.75000
C          C       0.35719   0.70837   0.75000
C          C       0.70837   0.35118   0.75000
C          C       0.64882   0.35719   0.75000
C          C       0.64281   0.29163   0.75000
C          C       0.38322   0.75390   0.75000
C          C       0.24610   0.62932   0.75000
C          C       0.37068   0.61678   0.75000
C          C       0.61678   0.24610   0.75000
C          C       0.75390   0.37068   0.75000
C          C       0.62932   0.38322   0.75000
C          C       0.34713   0.57442   0.75000
C          C       0.42558   0.77271   0.75000
C          C       0.22729   0.65287   0.75000
C          C       0.65287   0.42558   0.75000
C          C       0.57442   0.22729   0.75000
C          C       0.77271   0.34713   0.75000
C          C       0.36572   0.55005   0.75000
C          C       0.44995   0.81567   0.75000
C          C       0.18433   0.63428   0.75000
C          C       0.63428   0.44995   0.75000
C          C       0.55005   0.18433   0.75000
C          C       0.81567   0.36572   0.75000
C          C       0.40806   0.56744   0.75000
C          C       0.43256   0.84062   0.75000
C          C       0.15938   0.59194   0.75000
C          C       0.59194   0.43256   0.75000
C          C       0.56744   0.15938   0.75000
C          C       0.84062   0.40806   0.75000
C          C       0.43141   0.60938   0.75000
C          C       0.39062   0.82203   0.75000
C          C       0.17797   0.56859   0.75000
C          C       0.56859   0.39062   0.75000
C          C       0.60938   0.17797   0.75000
C          C       0.82203   0.43141   0.75000
C          C       0.41304   0.63398   0.75000
C          C       0.36602   0.77906   0.75000
C          C       0.22094   0.58696   0.75000
C          C       0.58696   0.36602   0.75000
C          C       0.63398   0.22094   0.75000
C          C       0.77906   0.41304   0.75000
N          N       0.11537   0.57394   0.75000
N          N       0.42606   0.54143   0.75000
N          N       0.45857   0.88463   0.75000
N          N       0.88463   0.42606   0.75000
N          N       0.57394   0.45857   0.75000
N          N       0.54143   0.11537   0.75000
C          C       0.46495   0.55381   0.75000
C          C       0.44619   0.91114   0.75000
C          C       0.08886   0.53505   0.75000
C          C       0.53505   0.44619   0.75000
C          C       0.55381   0.08886   0.75000
C          C       0.91114   0.46495   0.75000
C          C       0.48247   0.52585   0.75000
C          C       0.47415   0.95662   0.75000
C          C       0.04338   0.51753   0.75000
C          C       0.51753   0.47415   0.75000
C          C       0.52585   0.04338   0.75000
C          C       0.95662   0.48247   0.75000
C          C       0.45727   0.48272   0.75000
C          C       0.51728   0.97455   0.75000
C          C       0.02545   0.54273   0.75000
C          C       0.54273   0.51728   0.75000
C          C       0.48272   0.02545   0.75000
C          C       0.97455   0.45727   0.75000
C          C       0.47465   0.45725   0.75000
C          C       0.54275   0.01740   0.75000
C          C       0.98260   0.52535   0.75000
C          C       0.52535   0.54275   0.75000
C          C       0.45725   0.98260   0.75000
C          C       0.01740   0.47465   0.75000
O          O       0.89740   0.48582   0.75000
O          O       0.51418   0.41158   0.75000
O          O       0.58842   0.10260   0.75000
O          O       0.10260   0.51418   0.75000
O          O       0.48582   0.58842   0.75000
O          O       0.41158   0.89740   0.75000
H          H       0.31444   0.56031   0.75000
H          H       0.43969   0.75413   0.75000
H          H       0.24587   0.68556   0.75000
H          H       0.68556   0.43969   0.75000
H          H       0.56031   0.24587   0.75000
H          H       0.75413   0.31444   0.75000
H          H       0.34729   0.51761   0.75000
H          H       0.48239   0.82968   0.75000
H          H       0.17032   0.65271   0.75000
H          H       0.65271   0.48239   0.75000
H          H       0.51761   0.17032   0.75000
H          H       0.82968   0.34729   0.75000
H          H       0.46366   0.62260   0.75000
H          H       0.37740   0.84106   0.75000
H          H       0.15894   0.53634   0.75000
H          H       0.53634   0.37740   0.75000
H          H       0.62260   0.15894   0.75000
H          H       0.84106   0.46366   0.75000
H          H       0.43177   0.66628   0.75000
H          H       0.33372   0.76549   0.75000
H          H       0.23451   0.56823   0.75000
H          H       0.56823   0.33372   0.75000
H          H       0.66628   0.23451   0.75000
H          H       0.76549   0.43177   0.75000
H          H       0.10345   0.59191   0.75000
H          H       0.40809   0.51154   0.75000
H          H       0.48846   0.89655   0.75000
H          H       0.89655   0.40809   0.75000
H          H       0.59191   0.48846   0.75000
H          H       0.51154   0.10345   0.75000
H          H       0.42426   0.46855   0.75000
H          H       0.53145   0.95571   0.75000
H          H       0.04429   0.57574   0.75000
H          H       0.57574   0.53145   0.75000
H          H       0.46855   0.04429   0.75000
H          H       0.95571   0.42426   0.75000
H          H       0.45472   0.42411   0.75000
H          H       0.57589   0.03061   0.75000
H          H       0.96939   0.54528   0.75000
H          H       0.54528   0.57589   0.75000
H          H       0.42411   0.96939   0.75000
H          H       0.03061   0.45472   0.75000
