data_crystal

_cell_length_a    42.33480
_cell_length_b    42.33480
_cell_length_c    7.76560
_cell_angle_alpha 90.00000
_cell_angle_beta  90.00000
_cell_angle_gamma 120.00000

_space_group_name_Hall 'P 1'
_space_group_name_H-M_alt  'P 1'

loop_
_symmetry_equiv_pos_as_xyz
'x,y,z'

loop_
_atom_site_label
_atom_site_type_symbol
_atom_site_fract_x
_atom_site_fract_y
_atom_site_fract_z
N          N       0.32022   0.68798   0.25000
N          N       0.31202   0.63224   0.25000
N          N       0.36776   0.67978   0.25000
N          N       0.67978   0.31202   0.25000
N          N       0.68798   0.36776   0.25000
N          N       0.63224   0.32022   0.25000
C          C       0.35481   0.70135   0.25000
C          C       0.29865   0.65346   0.25000
C          C       0.34654   0.64519   0.25000
C          C       0.64519   0.29865   0.25000
C          C       0.70135   0.34654   0.25000
C          C       0.65346   0.35481   0.25000
C          C       0.37825   0.73921   0.25000
C          C       0.26079   0.63904   0.25000
C          C       0.36096   0.62175   0.25000
C          C       0.62175   0.26079   0.25000
C          C       0.73921   0.36096   0.25000
C          C       0.63904   0.37825   0.25000
C          C       0.36496   0.76174   0.25000
C          C       0.23826   0.60322   0.25000
C          C       0.39678   0.63504   0.25000
C          C       0.63504   0.23826   0.25000
C          C       0.76174   0.39678   0.25000
C          C       0.60322   0.36496   0.25000
C          C       0.38706   0.79738   0.25000
C          C       0.20262   0.58968   0.25000
C          C       0.41032   0.61294   0.25000
C          C       0.61294   0.20262   0.25000
C          C       0.79738   0.41032   0.25000
C          C       0.58968   0.38706   0.25000
C          C       0.42290   0.81125   0.25000
C          C       0.18875   0.61165   0.25000
C          C       0.38835   0.57710   0.25000
C          C       0.57710   0.18875   0.25000
C          C       0.81125   0.38835   0.25000
C          C       0.61165   0.42290   0.25000
C          C       0.43624   0.78887   0.25000
C          C       0.21113   0.64737   0.25000
C          C       0.35263   0.56376   0.25000
C          C       0.56376   0.21113   0.25000
C          C       0.78887   0.35263   0.25000
C          C       0.64737   0.43624   0.25000
C          C       0.41417   0.75323   0.25000
C          C       0.24677   0.66094   0.25000
C          C       0.33906   0.58583   0.25000
C          C       0.58583   0.24677   0.25000
C          C       0.75323   0.33906   0.25000
C          C       0.66094   0.41417   0.25000
N          N       0.44667   0.84881   0.25000
N          N       0.15119   0.59786   0.25000
N          N       0.40214   0.55333   0.25000
N          N       0.55333   0.15119   0.25000
N          N       0.84881   0.40214   0.25000
N          N       0.59786   0.44667   0.25000
C          C       0.43488   0.87005   0.25000
C          C       0.12995   0.56483   0.25000
C          C       0.43517   0.56512   0.25000
C          C       0.56512   0.12995   0.25000
C          C       0.87005   0.43517   0.25000
C          C       0.56483   0.43488   0.25000
C          C       0.45454   0.90703   0.25000
C          C       0.09297   0.54751   0.25000
C          C       0.45249   0.54546   0.25000
C          C       0.54546   0.09297   0.25000
C          C       0.90703   0.45249   0.25000
C          C       0.54751   0.45454   0.25000
C          C       0.49064   0.92578   0.25000
C          C       0.07422   0.56486   0.25000
C          C       0.43514   0.50936   0.25000
C          C       0.50936   0.07422   0.25000
C          C       0.92578   0.43514   0.25000
C          C       0.56486   0.49064   0.25000
C          C       0.50825   0.96178   0.25000
C          C       0.03822   0.54647   0.25000
C          C       0.45353   0.49175   0.25000
C          C       0.49175   0.03822   0.25000
C          C       0.96178   0.45353   0.25000
C          C       0.54647   0.50825   0.25000
C          C       0.49047   0.98047   0.25000
C          C       0.01953   0.51000   0.25000
C          C       0.49000   0.50953   0.25000
C          C       0.50953   0.01953   0.25000
C          C       0.98047   0.49000   0.25000
C          C       0.51000   0.49047   0.25000
C          C       0.45404   0.96092   0.25000
C          C       0.03908   0.49312   0.25000
C          C       0.50688   0.54596   0.25000
C          C       0.54596   0.03908   0.25000
C          C       0.96092   0.50688   0.25000
C          C       0.49312   0.45404   0.25000
C          C       0.43663   0.92496   0.25000
C          C       0.07504   0.51167   0.25000
C          C       0.48833   0.56337   0.25000
C          C       0.56337   0.07504   0.25000
C          C       0.92496   0.48833   0.25000
C          C       0.51167   0.43663   0.25000
H          H       0.33590   0.75070   0.25000
H          H       0.24930   0.58520   0.25000
H          H       0.41480   0.66410   0.25000
H          H       0.66410   0.24930   0.25000
H          H       0.75070   0.41480   0.25000
H          H       0.58520   0.33590   0.25000
H          H       0.37602   0.81540   0.25000
H          H       0.18460   0.56062   0.25000
H          H       0.43938   0.62398   0.25000
H          H       0.62398   0.18460   0.25000
H          H       0.81540   0.43938   0.25000
H          H       0.56062   0.37602   0.25000
H          H       0.46528   0.79972   0.25000
H          H       0.20028   0.66556   0.25000
H          H       0.33444   0.53472   0.25000
H          H       0.53472   0.20028   0.25000
H          H       0.79972   0.33444   0.25000
H          H       0.66556   0.46528   0.25000
H          H       0.42524   0.73523   0.25000
H          H       0.26477   0.69001   0.25000
H          H       0.30999   0.57476   0.25000
H          H       0.57476   0.26477   0.25000
H          H       0.73523   0.30999   0.25000
H          H       0.69001   0.42524   0.25000
H          H       0.50563   0.91143   0.25000
H          H       0.08857   0.59420   0.25000
H          H       0.40580   0.49437   0.25000
H          H       0.49437   0.08857   0.25000
H          H       0.91143   0.40580   0.25000
H          H       0.59420   0.50563   0.25000
H          H       0.53759   0.97677   0.25000
H          H       0.02323   0.56082   0.25000
H          H       0.43918   0.46241   0.25000
H          H       0.46241   0.02323   0.25000
H          H       0.97677   0.43918   0.25000
H          H       0.56082   0.53759   0.25000
H          H       0.43831   0.97451   0.25000
H          H       0.02549   0.46380   0.25000
H          H       0.53620   0.56169   0.25000
H          H       0.56169   0.02549   0.25000
H          H       0.97451   0.53620   0.25000
H          H       0.46380   0.43831   0.25000
H          H       0.40730   0.90982   0.25000
H          H       0.09018   0.49748   0.25000
H          H       0.50252   0.59270   0.25000
H          H       0.59270   0.09018   0.25000
H          H       0.90982   0.50252   0.25000
H          H       0.49748   0.40730   0.25000
H          H       0.40593   0.85971   0.25000
H          H       0.14029   0.54622   0.25000
H          H       0.45378   0.59407   0.25000
H          H       0.59407   0.14029   0.25000
H          H       0.85971   0.45378   0.25000
H          H       0.54622   0.40593   0.25000
N          N       0.32022   0.68798   0.75000
N          N       0.31202   0.63224   0.75000
N          N       0.36776   0.67978   0.75000
N          N       0.67978   0.31202   0.75000
N          N       0.68798   0.36776   0.75000
N          N       0.63224   0.32022   0.75000
C          C       0.35481   0.70135   0.75000
C          C       0.29865   0.65346   0.75000
C          C       0.34654   0.64519   0.75000
C          C       0.64519   0.29865   0.75000
C          C       0.70135   0.34654   0.75000
C          C       0.65346   0.35481   0.75000
C          C       0.37825   0.73921   0.75000
C          C       0.26079   0.63904   0.75000
C          C       0.36096   0.62175   0.75000
C          C       0.62175   0.26079   0.75000
C          C       0.73921   0.36096   0.75000
C          C       0.63904   0.37825   0.75000
C          C       0.36496   0.76174   0.75000
C          C       0.23826   0.60322   0.75000
C          C       0.39678   0.63504   0.75000
C          C       0.63504   0.23826   0.75000
C          C       0.76174   0.39678   0.75000
C          C       0.60322   0.36496   0.75000
C          C       0.38706   0.79738   0.75000
C          C       0.20262   0.58968   0.75000
C          C       0.41032   0.61294   0.75000
C          C       0.61294   0.20262   0.75000
C          C       0.79738   0.41032   0.75000
C          C       0.58968   0.38706   0.75000
C          C       0.42290   0.81125   0.75000
C          C       0.18875   0.61165   0.75000
C          C       0.38835   0.57710   0.75000
C          C       0.57710   0.18875   0.75000
C          C       0.81125   0.38835   0.75000
C          C       0.61165   0.42290   0.75000
C          C       0.43624   0.78887   0.75000
C          C       0.21113   0.64737   0.75000
C          C       0.35263   0.56376   0.75000
C          C       0.56376   0.21113   0.75000
C          C       0.78887   0.35263   0.75000
C          C       0.64737   0.43624   0.75000
C          C       0.41417   0.75323   0.75000
C          C       0.24677   0.66094   0.75000
C          C       0.33906   0.58583   0.75000
C          C       0.58583   0.24677   0.75000
C          C       0.75323   0.33906   0.75000
C          C       0.66094   0.41417   0.75000
N          N       0.44667   0.84881   0.75000
N          N       0.15119   0.59786   0.75000
N          N       0.40214   0.55333   0.75000
N          N       0.55333   0.15119   0.75000
N          N       0.84881   0.40214   0.75000
N          N       0.59786   0.44667   0.75000
C          C       0.43488   0.87005   0.75000
C          C       0.12995   0.56483   0.75000
C          C       0.43517   0.56512   0.75000
C          C       0.56512   0.12995   0.75000
C          C       0.87005   0.43517   0.75000
C          C       0.56483   0.43488   0.75000
C          C       0.45454   0.90703   0.75000
C          C       0.09297   0.54751   0.75000
C          C       0.45249   0.54546   0.75000
C          C       0.54546   0.09297   0.75000
C          C       0.90703   0.45249   0.75000
C          C       0.54751   0.45454   0.75000
C          C       0.49064   0.92578   0.75000
C          C       0.07422   0.56486   0.75000
C          C       0.43514   0.50936   0.75000
C          C       0.50936   0.07422   0.75000
C          C       0.92578   0.43514   0.75000
C          C       0.56486   0.49064   0.75000
C          C       0.50825   0.96178   0.75000
C          C       0.03822   0.54647   0.75000
C          C       0.45353   0.49175   0.75000
C          C       0.49175   0.03822   0.75000
C          C       0.96178   0.45353   0.75000
C          C       0.54647   0.50825   0.75000
C          C       0.49047   0.98047   0.75000
C          C       0.01953   0.51000   0.75000
C          C       0.49000   0.50953   0.75000
C          C       0.50953   0.01953   0.75000
C          C       0.98047   0.49000   0.75000
C          C       0.51000   0.49047   0.75000
C          C       0.45404   0.96092   0.75000
C          C       0.03908   0.49312   0.75000
C          C       0.50688   0.54596   0.75000
C          C       0.54596   0.03908   0.75000
C          C       0.96092   0.50688   0.75000
C          C       0.49312   0.45404   0.75000
C          C       0.43663   0.92496   0.75000
C          C       0.07504   0.51167   0.75000
C          C       0.48833   0.56337   0.75000
C          C       0.56337   0.07504   0.75000
C          C       0.92496   0.48833   0.75000
C          C       0.51167   0.43663   0.75000
H          H       0.33590   0.75070   0.75000
H          H       0.24930   0.58520   0.75000
H          H       0.41480   0.66410   0.75000
H          H       0.66410   0.24930   0.75000
H          H       0.75070   0.41480   0.75000
H          H       0.58520   0.33590   0.75000
H          H       0.37602   0.81540   0.75000
H          H       0.18460   0.56062   0.75000
H          H       0.43938   0.62398   0.75000
H          H       0.62398   0.18460   0.75000
H          H       0.81540   0.43938   0.75000
H          H       0.56062   0.37602   0.75000
H          H       0.46528   0.79972   0.75000
H          H       0.20028   0.66556   0.75000
H          H       0.33444   0.53472   0.75000
H          H       0.53472   0.20028   0.75000
H          H       0.79972   0.33444   0.75000
H          H       0.66556   0.46528   0.75000
H          H       0.42524   0.73523   0.75000
H          H       0.26477   0.69001   0.75000
H          H       0.30999   0.57476   0.75000
H          H       0.57476   0.26477   0.75000
H          H       0.73523   0.30999   0.75000
H          H       0.69001   0.42524   0.75000
H          H       0.50563   0.91143   0.75000
H          H       0.08857   0.59420   0.75000
H          H       0.40580   0.49437   0.75000
H          H       0.49437   0.08857   0.75000
H          H       0.91143   0.40580   0.75000
H          H       0.59420   0.50563   0.75000
H          H       0.53759   0.97677   0.75000
H          H       0.02323   0.56082   0.75000
H          H       0.43918   0.46241   0.75000
H          H       0.46241   0.02323   0.75000
H          H       0.97677   0.43918   0.75000
H          H       0.56082   0.53759   0.75000
H          H       0.43831   0.97451   0.75000
H          H       0.02549   0.46380   0.75000
H          H       0.53620   0.56169   0.75000
H          H       0.56169   0.02549   0.75000
H          H       0.97451   0.53620   0.75000
H          H       0.46380   0.43831   0.75000
H          H       0.40730   0.90982   0.75000
H          H       0.09018   0.49748   0.75000
H          H       0.50252   0.59270   0.75000
H          H       0.59270   0.09018   0.75000
H          H       0.90982   0.50252   0.75000
H          H       0.49748   0.40730   0.75000
H          H       0.40593   0.85971   0.75000
H          H       0.14029   0.54622   0.75000
H          H       0.45378   0.59407   0.75000
H          H       0.59407   0.14029   0.75000
H          H       0.85971   0.45378   0.75000
H          H       0.54622   0.40593   0.75000
