data_crystal

_cell_length_a    37.46270
_cell_length_b    37.46270
_cell_length_c    7.31340
_cell_angle_alpha 90.00000
_cell_angle_beta  90.00000
_cell_angle_gamma 120.00000

_space_group_name_Hall 'P 1'
_space_group_name_H-M_alt  'P 1'

loop_
_symmetry_equiv_pos_as_xyz
'x,y,z'

loop_
_atom_site_label
_atom_site_type_symbol
_atom_site_fract_x
_atom_site_fract_y
_atom_site_fract_z
H          H       0.75892   0.44265   0.00000
H          H       0.55735   0.31627   0.00000
H          H       0.68373   0.24108   0.00000
H          H       0.24108   0.55735   0.00000
H          H       0.44265   0.68373   0.00000
H          H       0.31627   0.75892   0.00000
H          H       0.76753   0.33184   0.00000
H          H       0.66816   0.43569   0.00000
H          H       0.56431   0.23247   0.00000
H          H       0.23247   0.66816   0.00000
H          H       0.33184   0.56431   0.00000
H          H       0.43569   0.76753   0.00000
H          H       0.83448   0.48392   0.00000
H          H       0.51608   0.35056   0.00000
H          H       0.64944   0.16552   0.00000
H          H       0.16552   0.51608   0.00000
H          H       0.48392   0.64944   0.00000
H          H       0.35056   0.83448   0.00000
H          H       0.84166   0.37282   0.00000
H          H       0.62718   0.46884   0.00000
H          H       0.53116   0.15834   0.00000
H          H       0.15834   0.62718   0.00000
H          H       0.37282   0.53116   0.00000
H          H       0.46884   0.84166   0.00000
H          H       0.40934   0.70905   0.00000
H          H       0.29095   0.70029   0.00000
H          H       0.29971   0.59066   0.00000
H          H       0.59066   0.29095   0.00000
H          H       0.70905   0.29971   0.00000
H          H       0.70029   0.40934   0.00000
H          H       0.41298   0.50980   0.00000
H          H       0.49020   0.90318   0.00000
H          H       0.09682   0.58702   0.00000
H          H       0.58702   0.49020   0.00000
H          H       0.50980   0.09682   0.00000
H          H       0.90318   0.41298   0.00000
H          H       0.52951   0.57624   0.00000
H          H       0.42376   0.95327   0.00000
H          H       0.04673   0.47049   0.00000
H          H       0.47049   0.42376   0.00000
H          H       0.57624   0.04673   0.00000
H          H       0.95327   0.52951   0.00000
H          H       0.42397   0.45402   0.00000
H          H       0.54598   0.96995   0.00000
H          H       0.03005   0.57603   0.00000
H          H       0.57603   0.54598   0.00000
H          H       0.45402   0.03005   0.00000
H          H       0.96995   0.42397   0.00000
C          C       0.77643   0.42661   0.00000
C          C       0.57339   0.34982   0.00000
C          C       0.65018   0.22357   0.00000
C          C       0.22357   0.57339   0.00000
C          C       0.42661   0.65018   0.00000
C          C       0.34982   0.77643   0.00000
C          C       0.78130   0.36524   0.00000
C          C       0.63476   0.41606   0.00000
C          C       0.58394   0.21870   0.00000
C          C       0.21870   0.63476   0.00000
C          C       0.36524   0.58394   0.00000
C          C       0.41606   0.78130   0.00000
C          C       0.81913   0.45035   0.00000
C          C       0.54965   0.36878   0.00000
C          C       0.63122   0.18087   0.00000
C          C       0.18087   0.54965   0.00000
C          C       0.45035   0.63122   0.00000
C          C       0.36878   0.81913   0.00000
C          C       0.82395   0.38870   0.00000
C          C       0.61130   0.43525   0.00000
C          C       0.56475   0.17605   0.00000
C          C       0.17605   0.61130   0.00000
C          C       0.38870   0.56475   0.00000
C          C       0.43525   0.82395   0.00000
C          C       0.75597   0.38322   0.00000
C          C       0.61678   0.37275   0.00000
C          C       0.62725   0.24403   0.00000
C          C       0.24403   0.61678   0.00000
C          C       0.38322   0.62725   0.00000
C          C       0.37275   0.75597   0.00000
C          C       0.84407   0.43213   0.00000
C          C       0.56787   0.41194   0.00000
C          C       0.58806   0.15593   0.00000
C          C       0.15593   0.56787   0.00000
C          C       0.43213   0.58806   0.00000
C          C       0.41194   0.84407   0.00000
C          C       0.35263   0.71033   0.00000
C          C       0.28967   0.64230   0.00000
C          C       0.35770   0.64737   0.00000
C          C       0.64737   0.28967   0.00000
C          C       0.71033   0.35770   0.00000
C          C       0.64230   0.35263   0.00000
C          C       0.37596   0.69046   0.00000
C          C       0.30954   0.68550   0.00000
C          C       0.31450   0.62404   0.00000
C          C       0.62404   0.30954   0.00000
C          C       0.69046   0.31450   0.00000
C          C       0.68550   0.37596   0.00000
C          C       0.44610   0.53349   0.00000
C          C       0.46651   0.91261   0.00000
C          C       0.08739   0.55390   0.00000
C          C       0.55390   0.46651   0.00000
C          C       0.53349   0.08739   0.00000
C          C       0.91261   0.44610   0.00000
C          C       0.51714   0.54300   0.00000
C          C       0.45700   0.97414   0.00000
C          C       0.02586   0.48286   0.00000
C          C       0.48286   0.45700   0.00000
C          C       0.54300   0.02586   0.00000
C          C       0.97414   0.51714   0.00000
C          C       0.47402   0.51709   0.00000
C          C       0.48291   0.95693   0.00000
C          C       0.04307   0.52598   0.00000
C          C       0.52598   0.48291   0.00000
C          C       0.51709   0.04307   0.00000
C          C       0.95693   0.47402   0.00000
C          C       0.45746   0.47399   0.00000
C          C       0.52601   0.98347   0.00000
C          C       0.01653   0.54254   0.00000
C          C       0.54254   0.52601   0.00000
C          C       0.47399   0.01653   0.00000
C          C       0.98347   0.45746   0.00000
N          N       0.45913   0.57251   0.00000
N          N       0.42749   0.88662   0.00000
N          N       0.11338   0.54087   0.00000
N          N       0.54087   0.42749   0.00000
N          N       0.57251   0.11338   0.00000
N          N       0.88662   0.45913   0.00000
H          H       0.75892   0.44265   0.50000
H          H       0.55735   0.31627   0.50000
H          H       0.68373   0.24108   0.50000
H          H       0.24108   0.55735   0.50000
H          H       0.44265   0.68373   0.50000
H          H       0.31627   0.75892   0.50000
H          H       0.76753   0.33184   0.50000
H          H       0.66816   0.43569   0.50000
H          H       0.56431   0.23247   0.50000
H          H       0.23247   0.66816   0.50000
H          H       0.33184   0.56431   0.50000
H          H       0.43569   0.76753   0.50000
H          H       0.83448   0.48392   0.50000
H          H       0.51608   0.35056   0.50000
H          H       0.64944   0.16552   0.50000
H          H       0.16552   0.51608   0.50000
H          H       0.48392   0.64944   0.50000
H          H       0.35056   0.83448   0.50000
H          H       0.84166   0.37282   0.50000
H          H       0.62718   0.46884   0.50000
H          H       0.53116   0.15834   0.50000
H          H       0.15834   0.62718   0.50000
H          H       0.37282   0.53116   0.50000
H          H       0.46884   0.84166   0.50000
H          H       0.40934   0.70905   0.50000
H          H       0.29095   0.70029   0.50000
H          H       0.29971   0.59066   0.50000
H          H       0.59066   0.29095   0.50000
H          H       0.70905   0.29971   0.50000
H          H       0.70029   0.40934   0.50000
H          H       0.41298   0.50980   0.50000
H          H       0.49020   0.90318   0.50000
H          H       0.09682   0.58702   0.50000
H          H       0.58702   0.49020   0.50000
H          H       0.50980   0.09682   0.50000
H          H       0.90318   0.41298   0.50000
H          H       0.52951   0.57624   0.50000
H          H       0.42376   0.95327   0.50000
H          H       0.04673   0.47049   0.50000
H          H       0.47049   0.42376   0.50000
H          H       0.57624   0.04673   0.50000
H          H       0.95327   0.52951   0.50000
H          H       0.42397   0.45402   0.50000
H          H       0.54598   0.96995   0.50000
H          H       0.03005   0.57603   0.50000
H          H       0.57603   0.54598   0.50000
H          H       0.45402   0.03005   0.50000
H          H       0.96995   0.42397   0.50000
C          C       0.77643   0.42661   0.50000
C          C       0.57339   0.34982   0.50000
C          C       0.65018   0.22357   0.50000
C          C       0.22357   0.57339   0.50000
C          C       0.42661   0.65018   0.50000
C          C       0.34982   0.77643   0.50000
C          C       0.78130   0.36524   0.50000
C          C       0.63476   0.41606   0.50000
C          C       0.58394   0.21870   0.50000
C          C       0.21870   0.63476   0.50000
C          C       0.36524   0.58394   0.50000
C          C       0.41606   0.78130   0.50000
C          C       0.81913   0.45035   0.50000
C          C       0.54965   0.36878   0.50000
C          C       0.63122   0.18087   0.50000
C          C       0.18087   0.54965   0.50000
C          C       0.45035   0.63122   0.50000
C          C       0.36878   0.81913   0.50000
C          C       0.82395   0.38870   0.50000
C          C       0.61130   0.43525   0.50000
C          C       0.56475   0.17605   0.50000
C          C       0.17605   0.61130   0.50000
C          C       0.38870   0.56475   0.50000
C          C       0.43525   0.82395   0.50000
C          C       0.75597   0.38322   0.50000
C          C       0.61678   0.37275   0.50000
C          C       0.62725   0.24403   0.50000
C          C       0.24403   0.61678   0.50000
C          C       0.38322   0.62725   0.50000
C          C       0.37275   0.75597   0.50000
C          C       0.84407   0.43213   0.50000
C          C       0.56787   0.41194   0.50000
C          C       0.58806   0.15593   0.50000
C          C       0.15593   0.56787   0.50000
C          C       0.43213   0.58806   0.50000
C          C       0.41194   0.84407   0.50000
C          C       0.35263   0.71033   0.50000
C          C       0.28967   0.64230   0.50000
C          C       0.35770   0.64737   0.50000
C          C       0.64737   0.28967   0.50000
C          C       0.71033   0.35770   0.50000
C          C       0.64230   0.35263   0.50000
C          C       0.37596   0.69046   0.50000
C          C       0.30954   0.68550   0.50000
C          C       0.31450   0.62404   0.50000
C          C       0.62404   0.30954   0.50000
C          C       0.69046   0.31450   0.50000
C          C       0.68550   0.37596   0.50000
C          C       0.44610   0.53349   0.50000
C          C       0.46651   0.91261   0.50000
C          C       0.08739   0.55390   0.50000
C          C       0.55390   0.46651   0.50000
C          C       0.53349   0.08739   0.50000
C          C       0.91261   0.44610   0.50000
C          C       0.51714   0.54300   0.50000
C          C       0.45700   0.97414   0.50000
C          C       0.02586   0.48286   0.50000
C          C       0.48286   0.45700   0.50000
C          C       0.54300   0.02586   0.50000
C          C       0.97414   0.51714   0.50000
C          C       0.47402   0.51709   0.50000
C          C       0.48291   0.95693   0.50000
C          C       0.04307   0.52598   0.50000
C          C       0.52598   0.48291   0.50000
C          C       0.51709   0.04307   0.50000
C          C       0.95693   0.47402   0.50000
C          C       0.45746   0.47399   0.50000
C          C       0.52601   0.98347   0.50000
C          C       0.01653   0.54254   0.50000
C          C       0.54254   0.52601   0.50000
C          C       0.47399   0.01653   0.50000
C          C       0.98347   0.45746   0.50000
N          N       0.45913   0.57251   0.50000
N          N       0.42749   0.88662   0.50000
N          N       0.11338   0.54087   0.50000
N          N       0.54087   0.42749   0.50000
N          N       0.57251   0.11338   0.50000
N          N       0.88662   0.45913   0.50000
