data_crystal

_cell_length_a    23.48870
_cell_length_b    23.48870
_cell_length_c    7.60080
_cell_angle_alpha 90.00000
_cell_angle_beta  90.00000
_cell_angle_gamma 120.00000

_space_group_name_Hall 'P 1'
_space_group_name_H-M_alt  'P 1'

loop_
_symmetry_equiv_pos_as_xyz
'x,y,z'

loop_
_atom_site_label
_atom_site_type_symbol
_atom_site_fract_x
_atom_site_fract_y
_atom_site_fract_z
C          C       0.29959   0.70131   0.46181
C          C       0.29869   0.59828   0.46181
C          C       0.40172   0.70041   0.46181
C          C       0.26383   0.63236   0.46206
C          C       0.36764   0.63147   0.46206
C          C       0.36853   0.73617   0.46206
C          C       0.40551   0.80870   0.46605
C          C       0.19130   0.59681   0.46605
C          C       0.40319   0.59449   0.46605
C          C       0.37572   0.53114   0.39304
C          C       0.46886   0.84458   0.39304
C          C       0.15542   0.62428   0.39304
C          C       0.40866   0.49588   0.40060
C          C       0.50412   0.91278   0.40060
C          C       0.08722   0.59134   0.40060
C          C       0.47047   0.52217   0.48266
C          C       0.47783   0.94830   0.48266
C          C       0.05170   0.52953   0.48266
C          C       0.49904   0.58639   0.05205
C          C       0.41361   0.91265   0.05205
C          C       0.08735   0.50096   0.05205
C          C       0.46577   0.62129   0.04443
C          C       0.37871   0.84448   0.04443
C          C       0.15552   0.53423   0.04443
C          C       0.54897   0.49538   0.08194
C          C       0.50462   0.05359   0.08194
C          C       0.94641   0.45103   0.08194
C          C       0.57806   0.45340   0.08295
C          C       0.54660   0.12466   0.08295
C          C       0.87534   0.42194   0.08295
C          C       0.54703   0.39111   0.00211
C          C       0.60889   0.15592   0.00211
C          C       0.84408   0.45297   0.00211
C          C       0.57583   0.35217   0.00357
C          C       0.64783   0.22366   0.00357
C          C       0.77634   0.42417   0.00357
C          C       0.63720   0.37348   0.08510
C          C       0.62652   0.26372   0.08510
C          C       0.73628   0.36280   0.08510
C          C       0.66814   0.43571   0.16581
C          C       0.56429   0.23243   0.16581
C          C       0.76757   0.33186   0.16581
C          C       0.63896   0.47455   0.16523
C          C       0.52545   0.16441   0.16523
C          C       0.83559   0.36104   0.16523
N          N       0.49842   0.48177   0.48602
N          N       0.51823   0.01665   0.48602
N          N       0.98335   0.50158   0.48602
H          H       0.27308   0.72837   0.46288
H          H       0.27163   0.54471   0.46288
H          H       0.45529   0.72692   0.46288
H          H       0.32873   0.51017   0.32440
H          H       0.48983   0.81856   0.32440
H          H       0.18144   0.67127   0.32440
H          H       0.38779   0.44721   0.34140
H          H       0.55279   0.94058   0.34140
H          H       0.05942   0.61221   0.34140
H          H       0.54701   0.60880   0.11584
H          H       0.39120   0.93821   0.11584
H          H       0.06179   0.45299   0.11584
H          H       0.48776   0.66978   0.10529
H          H       0.33022   0.81798   0.10529
H          H       0.18202   0.51224   0.10529
H          H       0.57309   0.53892   0.16849
H          H       0.46108   0.03417   0.16849
H          H       0.96583   0.42691   0.16849
H          H       0.50016   0.37467   0.43608
H          H       0.62533   0.12549   0.43608
H          H       0.87451   0.49984   0.43608
H          H       0.55061   0.30408   0.44182
H          H       0.69592   0.24653   0.44182
H          H       0.75347   0.44939   0.44182
H          H       0.71560   0.45373   0.22853
H          H       0.54627   0.26187   0.22853
H          H       0.73813   0.28440   0.22853
H          H       0.66341   0.52210   0.23189
H          H       0.47790   0.14131   0.23189
H          H       0.85869   0.33659   0.23189
N          N       0.66667   0.33333   0.08515
C          C       0.29959   0.70131   0.96181
C          C       0.29869   0.59828   0.96181
C          C       0.40172   0.70041   0.96181
C          C       0.26383   0.63236   0.96206
C          C       0.36764   0.63147   0.96206
C          C       0.36853   0.73617   0.96206
C          C       0.40551   0.80870   0.96605
C          C       0.19130   0.59681   0.96605
C          C       0.40319   0.59449   0.96605
C          C       0.37572   0.53114   0.89304
C          C       0.46886   0.84458   0.89304
C          C       0.15542   0.62428   0.89304
C          C       0.40866   0.49588   0.90060
C          C       0.50412   0.91278   0.90060
C          C       0.08722   0.59134   0.90060
C          C       0.47047   0.52217   0.98265
C          C       0.47783   0.94830   0.98265
C          C       0.05170   0.52953   0.98265
C          C       0.49904   0.58639   0.55205
C          C       0.41361   0.91265   0.55205
C          C       0.08735   0.50096   0.55205
C          C       0.46577   0.62129   0.54443
C          C       0.37871   0.84448   0.54443
C          C       0.15552   0.53423   0.54443
C          C       0.54897   0.49538   0.58194
C          C       0.50462   0.05359   0.58194
C          C       0.94641   0.45103   0.58194
C          C       0.57806   0.45340   0.58295
C          C       0.54660   0.12466   0.58295
C          C       0.87534   0.42194   0.58295
C          C       0.54703   0.39111   0.50211
C          C       0.60889   0.15592   0.50211
C          C       0.84408   0.45297   0.50211
C          C       0.57583   0.35217   0.50357
C          C       0.64783   0.22366   0.50357
C          C       0.77634   0.42417   0.50357
C          C       0.63720   0.37348   0.58510
C          C       0.62652   0.26372   0.58510
C          C       0.73628   0.36280   0.58510
C          C       0.66814   0.43571   0.66581
C          C       0.56429   0.23243   0.66581
C          C       0.76757   0.33186   0.66581
C          C       0.63896   0.47455   0.66523
C          C       0.52545   0.16441   0.66523
C          C       0.83559   0.36104   0.66523
N          N       0.49842   0.48177   0.98602
N          N       0.51823   0.01665   0.98602
N          N       0.98335   0.50158   0.98602
H          H       0.27308   0.72837   0.96288
H          H       0.27163   0.54471   0.96288
H          H       0.45529   0.72692   0.96288
H          H       0.32873   0.51017   0.82440
H          H       0.48983   0.81856   0.82440
H          H       0.18144   0.67127   0.82440
H          H       0.38779   0.44721   0.84139
H          H       0.55279   0.94058   0.84139
H          H       0.05942   0.61221   0.84139
H          H       0.54701   0.60880   0.61584
H          H       0.39120   0.93821   0.61584
H          H       0.06179   0.45299   0.61584
H          H       0.48776   0.66978   0.60530
H          H       0.33022   0.81798   0.60530
H          H       0.18202   0.51224   0.60530
H          H       0.57309   0.53892   0.66849
H          H       0.46108   0.03417   0.66849
H          H       0.96583   0.42691   0.66849
H          H       0.50016   0.37467   0.93608
H          H       0.62533   0.12549   0.93608
H          H       0.87451   0.49984   0.93608
H          H       0.55061   0.30408   0.94182
H          H       0.69592   0.24653   0.94182
H          H       0.75347   0.44939   0.94182
H          H       0.71560   0.45373   0.72853
H          H       0.54627   0.26187   0.72853
H          H       0.73813   0.28440   0.72853
H          H       0.66341   0.52210   0.73189
H          H       0.47790   0.14131   0.73189
H          H       0.85869   0.33659   0.73189
N          N       0.66667   0.33333   0.58515
