data_crystal

_cell_length_a    27.33350
_cell_length_b    27.33460
_cell_length_c    6.92980
_cell_angle_alpha 90.00000
_cell_angle_beta  90.00000
_cell_angle_gamma 120.00000

_symmetry_space_group_name_Hall 'P 1'
_symmetry_space_group_name_H-M  'P 1'

loop_
_symmetry_equiv_pos_as_xyz
 'x,y,z'

loop_
_atom_site_label
_atom_site_type_symbol
_atom_site_fract_x
_atom_site_fract_y
_atom_site_fract_z
C          C       0.28004   0.60786   0.25000
C          C       0.43352   0.10373   0.25000
C          C       0.30427   0.57331   0.25000
C          C       0.29300   0.70881   0.25000
C          C       0.36296   0.59703   0.25000
C          C       0.29800   0.95696   0.25000
C          C       0.39764   0.65607   0.25000
C          C       0.23942   0.70032   0.25000
C          C       0.37322   0.69057   0.25000
C          C       0.22696   0.74881   0.25000
C          C       0.31405   0.66737   0.25000
C          C       0.17041   0.73703   0.25000
C          C       0.45634   0.67979   0.25000
C          C       0.15588   0.77984   0.25000
C          C       0.48057   0.64523   0.25000
C          C       0.20065   0.83639   0.25000
C          C       0.44655   0.58573   0.25000
C          C       0.25799   0.85092   0.25000
C          C       0.38738   0.56253   0.25000
C          C       0.26977   0.80616   0.25000
C          C       0.46760   0.54428   0.25000
C          C       0.19119   0.64381   0.25000
C          C       0.52118   0.55277   0.25000
N          N       0.15169   0.59907   0.25000
C          C       0.53362   0.50426   0.25000
C          C       0.30649   0.91187   0.25000
C          C       0.59016   0.51604   0.25000
C          C       0.36299   0.92014   0.25000
C          C       0.60468   0.47322   0.25000
N          N       0.40773   0.92541   0.25000
C          C       0.55992   0.41667   0.25000
C          C       0.09494   0.76739   0.25000
C          C       0.50258   0.40215   0.25000
C          C       0.08666   0.81561   0.25000
C          C       0.49080   0.44692   0.25000
N          N       0.08137   0.85508   0.25000
C          C       0.56941   0.60928   0.25000
H          H       0.23488   0.58624   0.25000
C          C       0.66563   0.48566   0.25000
H          H       0.27696   0.52782   0.25000
C          C       0.67390   0.43743   0.25000
H          H       0.40078   0.73600   0.25000
C          C       0.45408   0.34119   0.25000
H          H       0.48364   0.72528   0.25000
C          C       0.39757   0.33333   0.25000
H          H       0.52572   0.66667   0.25000
N          N       0.35282   0.32765   0.25000
H          H       0.35982   0.51710   0.25000
N          N       0.67919   0.39796   0.25000
H          H       0.43321   0.50166   0.25000
N          N       0.60889   0.65403   0.25000
H          H       0.62262   0.55941   0.25000
C          C       0.71072   0.53924   0.25000
H          H       0.57082   0.38420   0.25000
C          C       0.46257   0.29610   0.25000
H          H       0.44743   0.43603   0.25000
C          C       0.77321   0.56028   0.25000
H          H       0.70247   0.57362   0.25000
C          C       0.80919   0.61944   0.25000
H          H       0.50519   0.30434   0.25000
C          C       0.86810   0.64386   0.25000
H          H       0.79132   0.64701   0.25000
C          C       0.89246   0.60917   0.25000
H          H       0.87564   0.52316   0.25000
C          C       0.85748   0.55048   0.25000
H          H       0.77515   0.48109   0.25000
C          C       0.79869   0.52625   0.25000
H          H       0.96924   0.60602   0.25000
C          C       0.95138   0.63359   0.25000
H          H       0.98541   0.77194   0.25000
C          C       0.98735   0.69276   0.25000
H          H       0.88491   0.72987   0.25000
C          C       0.96187   0.72679   0.25000
H          H       0.05809   0.67942   0.25000
C          C       0.90308   0.70256   0.25000
H          H       0.48974   0.21549   0.25000
C          C       0.04985   0.71381   0.25000
H          H       0.28157   0.13117   0.25000
C          C       0.42112   0.23360   0.25000
H          H       0.33999   0.23165   0.25000
C          C       0.44431   0.19763   0.25000
H          H       0.27083   0.03757   0.25000
C          C       0.40981   0.13871   0.25000
H          H       0.42058   0.02140   0.25000
C          C       0.35076   0.11435   0.25000
H          H       0.47900   0.12190   0.25000
C          C       0.32705   0.14933   0.25000
H          H       0.32739   0.75144   0.25000
C          C       0.36161   0.20812   0.25000
H          H       0.25537   0.94872   0.25000
C          C       0.31626   0.05544   0.25000
H          H       0.13795   0.69366   0.25000
C          C       0.33945   0.01946   0.25000
C          C       0.28004   0.60786   0.75000
C          C       0.43352   0.10373   0.75000
C          C       0.30427   0.57331   0.75000
C          C       0.29300   0.70881   0.75000
C          C       0.36296   0.59703   0.75000
C          C       0.29800   0.95696   0.75000
C          C       0.39764   0.65607   0.75000
C          C       0.23942   0.70032   0.75000
C          C       0.37322   0.69057   0.75000
C          C       0.22696   0.74881   0.75000
C          C       0.31405   0.66737   0.75000
C          C       0.17041   0.73703   0.75000
C          C       0.45634   0.67979   0.75000
C          C       0.15588   0.77984   0.75000
C          C       0.48057   0.64523   0.75000
C          C       0.20065   0.83639   0.75000
C          C       0.44655   0.58573   0.75000
C          C       0.25799   0.85092   0.75000
C          C       0.38738   0.56253   0.75000
C          C       0.26977   0.80616   0.75000
C          C       0.46760   0.54428   0.75000
C          C       0.19119   0.64381   0.75000
C          C       0.52118   0.55277   0.75000
N          N       0.15169   0.59907   0.75000
C          C       0.53362   0.50426   0.75000
C          C       0.30649   0.91187   0.75000
C          C       0.59016   0.51604   0.75000
C          C       0.36299   0.92014   0.75000
C          C       0.60468   0.47322   0.75000
N          N       0.40773   0.92541   0.75000
C          C       0.55992   0.41667   0.75000
C          C       0.09494   0.76739   0.75000
C          C       0.50258   0.40215   0.75000
C          C       0.08666   0.81561   0.75000
C          C       0.49080   0.44692   0.75000
N          N       0.08137   0.85508   0.75000
C          C       0.56941   0.60928   0.75000
H          H       0.23488   0.58624   0.75000
C          C       0.66563   0.48566   0.75000
H          H       0.27696   0.52782   0.75000
C          C       0.67390   0.43743   0.75000
H          H       0.40078   0.73600   0.75000
C          C       0.45408   0.34119   0.75000
H          H       0.48364   0.72528   0.75000
C          C       0.39757   0.33333   0.75000
H          H       0.52572   0.66667   0.75000
N          N       0.35282   0.32765   0.75000
H          H       0.35982   0.51710   0.75000
N          N       0.67919   0.39796   0.75000
H          H       0.43321   0.50166   0.75000
N          N       0.60889   0.65403   0.75000
H          H       0.62262   0.55941   0.75000
C          C       0.71072   0.53924   0.75000
H          H       0.57082   0.38420   0.75000
C          C       0.46257   0.29610   0.75000
H          H       0.44743   0.43603   0.75000
C          C       0.77321   0.56028   0.75000
H          H       0.70247   0.57362   0.75000
C          C       0.80919   0.61944   0.75000
H          H       0.50519   0.30434   0.75000
C          C       0.86810   0.64386   0.75000
H          H       0.79132   0.64701   0.75000
C          C       0.89246   0.60917   0.75000
H          H       0.87564   0.52316   0.75000
C          C       0.85748   0.55048   0.75000
H          H       0.77515   0.48109   0.75000
C          C       0.79869   0.52625   0.75000
H          H       0.96924   0.60602   0.75000
C          C       0.95138   0.63359   0.75000
H          H       0.98541   0.77194   0.75000
C          C       0.98735   0.69276   0.75000
H          H       0.88491   0.72987   0.75000
C          C       0.96187   0.72679   0.75000
H          H       0.05809   0.67942   0.75000
C          C       0.90308   0.70256   0.75000
H          H       0.48974   0.21549   0.75000
C          C       0.04985   0.71381   0.75000
H          H       0.28157   0.13117   0.75000
C          C       0.42112   0.23360   0.75000
H          H       0.33999   0.23165   0.75000
C          C       0.44431   0.19763   0.75000
H          H       0.27083   0.03757   0.75000
C          C       0.40981   0.13871   0.75000
H          H       0.42058   0.02140   0.75000
C          C       0.35076   0.11435   0.75000
H          H       0.47900   0.12190   0.75000
C          C       0.32705   0.14933   0.75000
H          H       0.32739   0.75144   0.75000
C          C       0.36161   0.20812   0.75000
H          H       0.25537   0.94872   0.75000
C          C       0.31626   0.05544   0.75000
H          H       0.13795   0.69366   0.75000
C          C       0.33945   0.01946   0.75000
