data_crystal

_cell_length_a    31.17010
_cell_length_b    31.17010
_cell_length_c    6.93340
_cell_angle_alpha 90.00000
_cell_angle_beta  90.00000
_cell_angle_gamma 120.00000

_space_group_name_Hall 'P 1'
_space_group_name_H-M_alt  'P 1'

loop_
_symmetry_equiv_pos_as_xyz
'x,y,z'

loop_
_atom_site_label
_atom_site_type_symbol
_atom_site_fract_x
_atom_site_fract_y
_atom_site_fract_z
C          C       0.31799   0.70164   0.25000
C          C       0.29836   0.61635   0.25000
C          C       0.38365   0.68201   0.25000
C          C       0.58725   0.39727   0.25000
C          C       0.60273   0.18998   0.25000
C          C       0.81002   0.41275   0.25000
C          C       0.28162   0.65088   0.25000
C          C       0.34912   0.63074   0.25000
C          C       0.36926   0.71838   0.25000
C          C       0.63556   0.40868   0.25000
C          C       0.59132   0.22688   0.25000
C          C       0.77312   0.36444   0.25000
C          C       0.36442   0.59131   0.25000
C          C       0.40869   0.77311   0.25000
C          C       0.22689   0.63558   0.25000
C          C       0.65087   0.36925   0.25000
C          C       0.63075   0.28162   0.25000
C          C       0.71838   0.34913   0.25000
C          C       0.32489   0.54030   0.25000
C          C       0.45970   0.78459   0.25000
C          C       0.21541   0.67511   0.25000
C          C       0.70164   0.38365   0.25000
C          C       0.61635   0.31799   0.25000
C          C       0.68201   0.29836   0.25000
N          N       0.29245   0.49977   0.25000
N          N       0.50023   0.79268   0.25000
N          N       0.20732   0.70755   0.25000
C          C       0.67510   0.45969   0.25000
C          C       0.54031   0.21541   0.25000
C          C       0.78459   0.32490   0.25000
C          C       0.41274   0.60272   0.25000
C          C       0.39728   0.81002   0.25000
C          C       0.18998   0.58726   0.25000
N          N       0.70758   0.50021   0.25000
N          N       0.49979   0.20737   0.25000
N          N       0.79263   0.29242   0.25000
C          C       0.43530   0.56982   0.25000
C          C       0.43018   0.86548   0.25000
C          C       0.13452   0.56470   0.25000
H          H       0.30541   0.72784   0.25000
H          H       0.27216   0.57757   0.25000
H          H       0.42243   0.69459   0.25000
C          C       0.48727   0.59361   0.25000
C          C       0.40639   0.89366   0.25000
C          C       0.10634   0.51273   0.25000
H          H       0.44078   0.64103   0.25000
H          H       0.35897   0.79975   0.25000
H          H       0.20025   0.55922   0.25000
C          C       0.51230   0.56691   0.25000
C          C       0.43309   0.94539   0.25000
C          C       0.05461   0.48770   0.25000
H          H       0.50923   0.63368   0.25000
H          H       0.36632   0.87555   0.25000
H          H       0.12445   0.49077   0.25000
C          C       0.48647   0.51459   0.25000
C          C       0.48541   0.97188   0.25000
C          C       0.02812   0.51353   0.25000
H          H       0.55206   0.58864   0.25000
H          H       0.41136   0.96342   0.25000
H          H       0.03658   0.44794   0.25000
C          C       0.43419   0.49083   0.25000
C          C       0.50917   0.94336   0.25000
C          C       0.05664   0.56581   0.25000
H          H       0.41113   0.45117   0.25000
H          H       0.54883   0.95996   0.25000
H          H       0.04004   0.58887   0.25000
C          C       0.40924   0.51770   0.25000
C          C       0.48230   0.89154   0.25000
C          C       0.10846   0.59076   0.25000
H          H       0.36970   0.49607   0.25000
H          H       0.50393   0.87363   0.25000
H          H       0.12637   0.63030   0.25000
C          C       0.51350   0.48538   0.25000
C          C       0.51462   0.02812   0.25000
C          C       0.97188   0.48650   0.25000
H          H       0.44792   0.41134   0.25000
H          H       0.58866   0.03658   0.25000
H          H       0.96342   0.55208   0.25000
C          C       0.48767   0.43306   0.25000
C          C       0.56694   0.05461   0.25000
C          C       0.94539   0.51233   0.25000
H          H       0.49076   0.36629   0.25000
H          H       0.63371   0.12447   0.25000
H          H       0.87553   0.50924   0.25000
C          C       0.51270   0.40636   0.25000
C          C       0.59364   0.10634   0.25000
C          C       0.89366   0.48730   0.25000
H          H       0.63027   0.50389   0.25000
H          H       0.49611   0.12638   0.25000
H          H       0.87362   0.36973   0.25000
C          C       0.56468   0.43015   0.25000
C          C       0.56985   0.13453   0.25000
C          C       0.86547   0.43532   0.25000
H          H       0.58883   0.54879   0.25000
H          H       0.45121   0.04004   0.25000
H          H       0.95996   0.41117   0.25000
C          C       0.59073   0.48227   0.25000
C          C       0.51773   0.10846   0.25000
C          C       0.89154   0.40927   0.25000
H          H       0.55921   0.35896   0.25000
H          H       0.64104   0.20025   0.25000
H          H       0.79975   0.44079   0.25000
C          C       0.56578   0.50914   0.25000
C          C       0.49086   0.05664   0.25000
C          C       0.94336   0.43422   0.25000
H          H       0.72783   0.42243   0.25000
H          H       0.57757   0.30540   0.25000
H          H       0.69460   0.27217   0.25000
C          C       0.31799   0.70164   0.75000
C          C       0.29836   0.61635   0.75000
C          C       0.38365   0.68201   0.75000
C          C       0.58725   0.39727   0.75000
C          C       0.60273   0.18998   0.75000
C          C       0.81002   0.41275   0.75000
C          C       0.28162   0.65088   0.75000
C          C       0.34912   0.63074   0.75000
C          C       0.36926   0.71838   0.75000
C          C       0.63556   0.40868   0.75000
C          C       0.59132   0.22688   0.75000
C          C       0.77312   0.36444   0.75000
C          C       0.36442   0.59131   0.75000
C          C       0.40869   0.77311   0.75000
C          C       0.22689   0.63558   0.75000
C          C       0.65087   0.36925   0.75000
C          C       0.63075   0.28162   0.75000
C          C       0.71838   0.34913   0.75000
C          C       0.32489   0.54030   0.75000
C          C       0.45970   0.78459   0.75000
C          C       0.21541   0.67511   0.75000
C          C       0.70164   0.38365   0.75000
C          C       0.61635   0.31799   0.75000
C          C       0.68201   0.29836   0.75000
N          N       0.29245   0.49977   0.75000
N          N       0.50023   0.79268   0.75000
N          N       0.20732   0.70755   0.75000
C          C       0.67510   0.45969   0.75000
C          C       0.54031   0.21541   0.75000
C          C       0.78459   0.32490   0.75000
C          C       0.41274   0.60272   0.75000
C          C       0.39728   0.81002   0.75000
C          C       0.18998   0.58726   0.75000
N          N       0.70758   0.50021   0.75000
N          N       0.49979   0.20737   0.75000
N          N       0.79263   0.29242   0.75000
C          C       0.43530   0.56982   0.75000
C          C       0.43018   0.86548   0.75000
C          C       0.13452   0.56470   0.75000
H          H       0.30541   0.72784   0.75000
H          H       0.27216   0.57757   0.75000
H          H       0.42243   0.69459   0.75000
C          C       0.48727   0.59361   0.75000
C          C       0.40639   0.89366   0.75000
C          C       0.10634   0.51273   0.75000
H          H       0.44078   0.64103   0.75000
H          H       0.35897   0.79975   0.75000
H          H       0.20025   0.55922   0.75000
C          C       0.51230   0.56691   0.75000
C          C       0.43309   0.94539   0.75000
C          C       0.05461   0.48770   0.75000
H          H       0.50923   0.63368   0.75000
H          H       0.36632   0.87555   0.75000
H          H       0.12445   0.49077   0.75000
C          C       0.48647   0.51459   0.75000
C          C       0.48541   0.97188   0.75000
C          C       0.02812   0.51353   0.75000
H          H       0.55206   0.58864   0.75000
H          H       0.41136   0.96342   0.75000
H          H       0.03658   0.44794   0.75000
C          C       0.43419   0.49083   0.75000
C          C       0.50917   0.94336   0.75000
C          C       0.05664   0.56581   0.75000
H          H       0.41113   0.45117   0.75000
H          H       0.54883   0.95996   0.75000
H          H       0.04004   0.58887   0.75000
C          C       0.40924   0.51770   0.75000
C          C       0.48230   0.89154   0.75000
C          C       0.10846   0.59076   0.75000
H          H       0.36970   0.49607   0.75000
H          H       0.50393   0.87363   0.75000
H          H       0.12637   0.63030   0.75000
C          C       0.51350   0.48538   0.75000
C          C       0.51462   0.02812   0.75000
C          C       0.97188   0.48650   0.75000
H          H       0.44792   0.41134   0.75000
H          H       0.58866   0.03658   0.75000
H          H       0.96342   0.55208   0.75000
C          C       0.48767   0.43306   0.75000
C          C       0.56694   0.05461   0.75000
C          C       0.94539   0.51233   0.75000
H          H       0.49076   0.36629   0.75000
H          H       0.63371   0.12447   0.75000
H          H       0.87553   0.50924   0.75000
C          C       0.51270   0.40636   0.75000
C          C       0.59364   0.10634   0.75000
C          C       0.89366   0.48730   0.75000
H          H       0.63027   0.50389   0.75000
H          H       0.49611   0.12638   0.75000
H          H       0.87362   0.36973   0.75000
C          C       0.56468   0.43015   0.75000
C          C       0.56985   0.13453   0.75000
C          C       0.86547   0.43532   0.75000
H          H       0.58883   0.54879   0.75000
H          H       0.45121   0.04004   0.75000
H          H       0.95996   0.41117   0.75000
C          C       0.59073   0.48227   0.75000
C          C       0.51773   0.10846   0.75000
C          C       0.89154   0.40927   0.75000
H          H       0.55921   0.35896   0.75000
H          H       0.64104   0.20025   0.75000
H          H       0.79975   0.44079   0.75000
C          C       0.56578   0.50914   0.75000
C          C       0.49086   0.05664   0.75000
C          C       0.94336   0.43422   0.75000
H          H       0.72783   0.42243   0.75000
H          H       0.57757   0.30540   0.75000
H          H       0.69460   0.27217   0.75000
