data_20340N2_PM
_symmetry_space_group_name_H-M    'P1'
_cell_length_a    27.333500
_cell_length_b    27.334600
_cell_length_c    6.929800
_cell_angle_alpha    90.000000
_cell_angle_beta    90.000000
_cell_angle_gamma    120.000000
_symmetry_Int_Tables_number 1

loop_
_symmetry_equiv_pos_as_xyz
'x,y,z'

loop_
_atom_site_label
_atom_site_type_symbol
_atom_site_fract_x
_atom_site_fract_y
_atom_site_fract_z
C1    C    0.280040    0.607860    0.250000
C2    C    0.433520    0.103730    0.250000
C3    C    0.304270    0.573310    0.250000
C4    C    0.293000    0.708810    0.250000
C5    C    0.362960    0.597030    0.250000
C6    C    0.298000    0.956960    0.250000
C7    C    0.397640    0.656070    0.250000
C8    C    0.239420    0.700320    0.250000
C9    C    0.373220    0.690570    0.250000
C10    C    0.226960    0.748810    0.250000
C11    C    0.314050    0.667370    0.250000
C12    C    0.170410    0.737030    0.250000
C13    C    0.456340    0.679790    0.250000
C14    C    0.155880    0.779840    0.250000
C15    C    0.480570    0.645230    0.250000
C16    C    0.200650    0.836390    0.250000
C17    C    0.446550    0.585730    0.250000
C18    C    0.257990    0.850920    0.250000
C19    C    0.387380    0.562530    0.250000
C20    C    0.269770    0.806160    0.250000
C21    C    0.467600    0.544280    0.250000
C22    C    0.191190    0.643810    0.250000
C23    C    0.521180    0.552770    0.250000
N1    N    0.151690    0.599070    0.250000
C24    C    0.533620    0.504260    0.250000
C25    C    0.306490    0.911870    0.250000
C26    C    0.590160    0.516040    0.250000
C27    C    0.362990    0.920140    0.250000
N2    N    0.407730    0.925410    0.250000
C28    C    0.559920    0.416670    0.250000
C29    C    0.094940    0.767390    0.250000
C30    C    0.502580    0.402150    0.250000
C31    C    0.086660    0.815610    0.250000
C32    C    0.490800    0.446920    0.250000
N3    N    0.081370    0.855080    0.250000
C33    C    0.569410    0.609280    0.250000
H1    H    0.234880    0.586240    0.250000
C34    C    0.665630    0.485660    0.250000
H2    H    0.276960    0.527820    0.250000
C35    C    0.673900    0.437430    0.250000
H3    H    0.400780    0.736000    0.250000
C36    C    0.454080    0.341190    0.250000
H4    H    0.483640    0.725280    0.250000
C37    C    0.397570    0.333330    0.250000
H5    H    0.525720    0.666670    0.250000
N4    N    0.352820    0.327650    0.250000
H6    H    0.359820    0.517100    0.250000
N5    N    0.679190    0.397960    0.250000
H7    H    0.433210    0.501660    0.250000
N6    N    0.608890    0.654030    0.250000
H8    H    0.622620    0.559410    0.250000
C38    C    0.710720    0.539240    0.250000
H9    H    0.570820    0.384200    0.250000
C39    C    0.462570    0.296100    0.250000
H10    H    0.447430    0.436030    0.250000
C40    C    0.773210    0.560280    0.250000
H11    H    0.702470    0.573620    0.250000
C41    C    0.809190    0.619440    0.250000
H12    H    0.505190    0.304340    0.250000
C42    C    0.868100    0.643860    0.250000
H13    H    0.791320    0.647010    0.250000
C43    C    0.892460    0.609170    0.250000
H14    H    0.875640    0.523160    0.250000
C44    C    0.857480    0.550480    0.250000
H15    H    0.775150    0.481090    0.250000
C45    C    0.798690    0.526250    0.250000
H16    H    0.969240    0.606020    0.250000
C46    C    0.951380    0.633590    0.250000
H17    H    0.985410    0.771940    0.250000
C47    C    0.987350    0.692760    0.250000
H18    H    0.884910    0.729870    0.250000
C48    C    0.961870    0.726790    0.250000
H19    H    0.058090    0.679420    0.250000
C49    C    0.903080    0.702560    0.250000
H20    H    0.489740    0.215490    0.250000
C50    C    0.049850    0.713810    0.250000
H21    H    0.281570    0.131170    0.250000
C51    C    0.421120    0.233600    0.250000
H22    H    0.339990    0.231650    0.250000
C52    C    0.444310    0.197630    0.250000
H23    H    0.270830    0.037570    0.250000
C53    C    0.409810    0.138710    0.250000
H24    H    0.420580    0.021400    0.250000
C54    C    0.350760    0.114350    0.250000
H25    H    0.479000    0.121900    0.250000
C55    C    0.327050    0.149330    0.250000
H26    H    0.327390    0.751440    0.250000
C56    C    0.361610    0.208120    0.250000
H27    H    0.255370    0.948720    0.250000
C57    C    0.316260    0.055440    0.250000
H28    H    0.137950    0.693660    0.250000
C58    C    0.339450    0.019460    0.250000
C59    C    0.280040    0.607860    0.750000
C60    C    0.433520    0.103730    0.750000
C61    C    0.304270    0.573310    0.750000
C62    C    0.293000    0.708810    0.750000
C63    C    0.362960    0.597030    0.750000
C64    C    0.298000    0.956960    0.750000
C65    C    0.397640    0.656070    0.750000
C66    C    0.239420    0.700320    0.750000
C67    C    0.373220    0.690570    0.750000
C68    C    0.226960    0.748810    0.750000
C69    C    0.314050    0.667370    0.750000
C70    C    0.170410    0.737030    0.750000
C71    C    0.456340    0.679790    0.750000
C72    C    0.155880    0.779840    0.750000
C73    C    0.480570    0.645230    0.750000
C74    C    0.200650    0.836390    0.750000
C75    C    0.446550    0.585730    0.750000
C76    C    0.257990    0.850920    0.750000
C77    C    0.387380    0.562530    0.750000
C78    C    0.269770    0.806160    0.750000
C79    C    0.467600    0.544280    0.750000
C80    C    0.191190    0.643810    0.750000
C81    C    0.521180    0.552770    0.750000
N7    N    0.151690    0.599070    0.750000
C82    C    0.533620    0.504260    0.750000
C83    C    0.306490    0.911870    0.750000
C84    C    0.590160    0.516040    0.750000
C85    C    0.362990    0.920140    0.750000
C86    C    0.604680    0.473220    0.750000
N8    N    0.407730    0.925410    0.750000
C87    C    0.559920    0.416670    0.750000
C88    C    0.094940    0.767390    0.750000
C89    C    0.502580    0.402150    0.750000
C90    C    0.086660    0.815610    0.750000
C91    C    0.490800    0.446920    0.750000
N9    N    0.081370    0.855080    0.750000
C92    C    0.569410    0.609280    0.750000
H29    H    0.234880    0.586240    0.750000
C93    C    0.665630    0.485660    0.750000
H30    H    0.276960    0.527820    0.750000
C94    C    0.673900    0.437430    0.750000
H31    H    0.400780    0.736000    0.750000
C95    C    0.454080    0.341190    0.750000
H32    H    0.483640    0.725280    0.750000
C96    C    0.397570    0.333330    0.750000
H33    H    0.525720    0.666670    0.750000
N10    N    0.352820    0.327650    0.750000
H34    H    0.359820    0.517100    0.750000
N11    N    0.679190    0.397960    0.750000
H35    H    0.433210    0.501660    0.750000
N12    N    0.608890    0.654030    0.750000
H36    H    0.622620    0.559410    0.750000
C97    C    0.710720    0.539240    0.750000
H37    H    0.570820    0.384200    0.750000
C98    C    0.462570    0.296100    0.750000
H38    H    0.447430    0.436030    0.750000
C99    C    0.773210    0.560280    0.750000
H39    H    0.702470    0.573620    0.750000
C100    C    0.809190    0.619440    0.750000
H40    H    0.505190    0.304340    0.750000
C101    C    0.868100    0.643860    0.750000
H41    H    0.791320    0.647010    0.750000
C102    C    0.892460    0.609170    0.750000
H42    H    0.875640    0.523160    0.750000
C103    C    0.857480    0.550480    0.750000
H43    H    0.775150    0.481090    0.750000
C104    C    0.798690    0.526250    0.750000
H44    H    0.969240    0.606020    0.750000
C105    C    0.951380    0.633590    0.750000
H45    H    0.985410    0.771940    0.750000
C106    C    0.987350    0.692760    0.750000
H46    H    0.884910    0.729870    0.750000
C107    C    0.961870    0.726790    0.750000
H47    H    0.058090    0.679420    0.750000
C108    C    0.903080    0.702560    0.750000
H48    H    0.489740    0.215490    0.750000
C109    C    0.049850    0.713810    0.750000
H49    H    0.281570    0.131170    0.750000
C110    C    0.421120    0.233600    0.750000
H50    H    0.339990    0.231650    0.750000
C111    C    0.444310    0.197630    0.750000
H51    H    0.270830    0.037570    0.750000
C112    C    0.409810    0.138710    0.750000
H52    H    0.420580    0.021400    0.750000
C113    C    0.350760    0.114350    0.750000
H53    H    0.479000    0.121900    0.750000
C114    C    0.327050    0.149330    0.750000
H54    H    0.327390    0.751440    0.750000
C115    C    0.361610    0.208120    0.750000
H55    H    0.255370    0.948720    0.750000
C116    C    0.316260    0.055440    0.750000
H56    H    0.137950    0.693660    0.750000
C117    C    0.339450    0.019460    0.750000
C118    C    0.400180    0.043481    0.250000
C119    C    0.412224    0.050873    0.755331
