data_crystal

_cell_length_a    27.05000
_cell_length_b    27.05000
_cell_length_c    8.64000
_cell_angle_alpha 90.00000
_cell_angle_beta  90.00000
_cell_angle_gamma 90.00000

_symmetry_space_group_name_Hall 'P 1'
_symmetry_space_group_name_H-M  'P 1'

loop_
_symmetry_equiv_pos_as_xyz
 'x,y,z'

loop_
_atom_site_label
_atom_site_type_symbol
_atom_site_fract_x
_atom_site_fract_y
_atom_site_fract_z
C          C       0.87600   0.86709   0.24415
C          C       0.12400   0.13291   0.24415
C          C       0.13291   0.87600   0.24415
C          C       0.86709   0.12400   0.24415
C          C       0.88203   0.82460   0.33542
C          C       0.11797   0.17540   0.33542
C          C       0.17540   0.88203   0.33542
C          C       0.82460   0.11797   0.33542
C          C       0.84730   0.78639   0.33098
C          C       0.15270   0.21361   0.33098
C          C       0.21361   0.84730   0.33098
C          C       0.78639   0.15270   0.33098
C          C       0.80506   0.79041   0.23646
C          C       0.19494   0.20959   0.23646
C          C       0.20959   0.80506   0.23646
C          C       0.79041   0.19494   0.23646
C          C       0.79870   0.83310   0.14744
C          C       0.20130   0.16690   0.14744
C          C       0.16690   0.79870   0.14744
C          C       0.83310   0.20130   0.14744
C          C       0.83390   0.87082   0.15015
C          C       0.16610   0.12918   0.15015
C          C       0.12918   0.83390   0.15015
C          C       0.87082   0.16610   0.15015
N          N       0.24717   0.76755   0.27226
N          N       0.75283   0.23245   0.27226
N          N       0.23245   0.24717   0.27226
N          N       0.76755   0.75283   0.27226
C          C       0.35589   0.38922   0.25911
C          C       0.64411   0.61078   0.25911
C          C       0.61078   0.35589   0.25911
C          C       0.38922   0.64411   0.25911
C          C       0.35461   0.34564   0.17082
C          C       0.64539   0.65436   0.17082
C          C       0.65436   0.35461   0.17082
C          C       0.34564   0.64539   0.17082
C          C       0.31473   0.31300   0.18247
C          C       0.68527   0.68700   0.18247
C          C       0.68700   0.31473   0.18247
C          C       0.31300   0.68527   0.18247
C          C       0.27474   0.32390   0.28039
C          C       0.72526   0.67610   0.28039
C          C       0.67610   0.27474   0.28039
C          C       0.32390   0.72526   0.28039
C          C       0.27518   0.36815   0.36458
C          C       0.72482   0.63185   0.36458
C          C       0.63185   0.27518   0.36458
C          C       0.36815   0.72482   0.36458
C          C       0.31549   0.40021   0.35490
C          C       0.68451   0.59979   0.35490
C          C       0.59979   0.31549   0.35490
C          C       0.40021   0.68451   0.35490
C          C       0.71047   0.23277   0.20144
C          C       0.28953   0.76723   0.20144
C          C       0.76723   0.71047   0.20144
C          C       0.23277   0.28953   0.20144
C          C       0.08626   0.09246   0.24657
C          C       0.91374   0.90754   0.24657
C          C       0.90754   0.08626   0.24657
C          C       0.09246   0.91374   0.24657
C          C       0.42287   0.60021   0.24580
C          C       0.57713   0.39979   0.24580
C          C       0.39979   0.42287   0.24580
C          C       0.60021   0.57713   0.24580
C          C       0.40289   0.55276   0.21857
C          C       0.59711   0.44724   0.21857
C          C       0.44724   0.40289   0.21857
C          C       0.55276   0.59711   0.21857
N          N       0.42636   0.50958   0.24888
N          N       0.57364   0.49042   0.24888
N          N       0.49042   0.42636   0.24888
N          N       0.50958   0.57364   0.24888
C          C       0.39246   0.47361   0.22353
C          C       0.60754   0.52639   0.22353
C          C       0.52639   0.39246   0.22353
C          C       0.47361   0.60754   0.22353
C          C       0.34819   0.49400   0.17478
C          C       0.65181   0.50600   0.17478
C          C       0.50600   0.34819   0.17478
C          C       0.49400   0.65181   0.17478
C          C       0.35491   0.54391   0.17015
C          C       0.64509   0.45609   0.17015
C          C       0.45609   0.35491   0.17015
C          C       0.54391   0.64509   0.17015
C          C       0.89555   0.03621   0.28084
C          C       0.10445   0.96379   0.28084
C          C       0.96379   0.89555   0.28084
C          C       0.03621   0.10445   0.28084
C          C       0.95642   0.10179   0.22315
C          C       0.04358   0.89821   0.22315
C          C       0.89821   0.95642   0.22315
C          C       0.10179   0.04358   0.22315
C          C       0.96935   0.14879   0.17443
C          C       0.03065   0.85121   0.17443
C          C       0.85121   0.96935   0.17443
C          C       0.14879   0.03065   0.17443
C          C       0.01970   0.15039   0.17108
C          C       0.98030   0.84961   0.17108
C          C       0.84961   0.01970   0.17108
C          C       0.15039   0.98030   0.17108
N          N       0.99742   0.07421   0.24888
N          N       0.00258   0.92579   0.24888
N          N       0.92579   0.99742   0.24888
N          N       0.07421   0.00258   0.24888
H          H       0.91382   0.82100   0.41010
H          H       0.08618   0.17900   0.41010
H          H       0.17900   0.91382   0.41010
H          H       0.82100   0.08618   0.41010
H          H       0.85379   0.75459   0.40343
H          H       0.14621   0.24541   0.40343
H          H       0.24541   0.85379   0.40343
H          H       0.75459   0.14621   0.40343
H          H       0.76650   0.83687   0.07404
H          H       0.23350   0.16313   0.07404
H          H       0.16313   0.76650   0.07404
H          H       0.83687   0.23350   0.07404
H          H       0.82828   0.90307   0.07903
H          H       0.17172   0.09693   0.07903
H          H       0.09693   0.82828   0.07903
H          H       0.90307   0.17172   0.07903
H          H       0.38486   0.33660   0.09433
H          H       0.61514   0.66340   0.09433
H          H       0.66340   0.38486   0.09433
H          H       0.33660   0.61514   0.09433
H          H       0.31523   0.27938   0.11460
H          H       0.68477   0.72062   0.11460
H          H       0.72062   0.31523   0.11460
H          H       0.27938   0.68477   0.11460
H          H       0.24480   0.37743   0.44079
H          H       0.75520   0.62257   0.44079
H          H       0.62257   0.24480   0.44079
H          H       0.37743   0.75520   0.44079
H          H       0.31537   0.43356   0.42303
H          H       0.68463   0.56644   0.42303
H          H       0.56644   0.31537   0.42303
H          H       0.43356   0.68463   0.42303
H          H       0.69965   0.20286   0.12606
H          H       0.30035   0.79714   0.12606
H          H       0.79714   0.69965   0.12606
H          H       0.20286   0.30035   0.12606
H          H       0.31390   0.47526   0.14927
H          H       0.68610   0.52474   0.14927
H          H       0.52474   0.31390   0.14927
H          H       0.47526   0.68610   0.14927
H          H       0.32687   0.57050   0.13869
H          H       0.67313   0.42950   0.13869
H          H       0.42950   0.32687   0.13869
H          H       0.57050   0.67313   0.13869
H          H       0.94528   0.17949   0.14794
H          H       0.05472   0.82051   0.14794
H          H       0.82051   0.94528   0.14794
H          H       0.17949   0.05472   0.14794
H          H       0.04140   0.18248   0.14079
H          H       0.95860   0.81752   0.14079
H          H       0.81752   0.04140   0.14079
H          H       0.18248   0.95860   0.14079
Zn         Zn      0.50000   0.50000   0.25000
Zn         Zn      0.00000   0.00000   0.25000
C          C       0.87600   0.86709   0.74416
C          C       0.12400   0.13291   0.74416
C          C       0.13291   0.87600   0.74416
C          C       0.86709   0.12400   0.74416
C          C       0.88203   0.82460   0.83542
C          C       0.11797   0.17540   0.83542
C          C       0.17540   0.88203   0.83542
C          C       0.82460   0.11797   0.83542
C          C       0.84730   0.78639   0.83098
C          C       0.15270   0.21361   0.83098
C          C       0.21361   0.84730   0.83098
C          C       0.78639   0.15270   0.83098
C          C       0.80506   0.79041   0.73646
C          C       0.19494   0.20959   0.73646
C          C       0.20959   0.80506   0.73646
C          C       0.79041   0.19494   0.73646
C          C       0.79870   0.83310   0.64744
C          C       0.20130   0.16690   0.64744
C          C       0.16690   0.79870   0.64744
C          C       0.83310   0.20130   0.64744
C          C       0.83390   0.87082   0.65015
C          C       0.16610   0.12918   0.65015
C          C       0.12918   0.83390   0.65015
C          C       0.87082   0.16610   0.65015
N          N       0.24717   0.76755   0.77226
N          N       0.75283   0.23245   0.77226
N          N       0.23245   0.24717   0.77226
N          N       0.76755   0.75283   0.77226
C          C       0.35589   0.38922   0.75911
C          C       0.64411   0.61078   0.75911
C          C       0.61078   0.35589   0.75911
C          C       0.38922   0.64411   0.75911
C          C       0.35461   0.34564   0.67082
C          C       0.64539   0.65436   0.67082
C          C       0.65436   0.35461   0.67082
C          C       0.34564   0.64539   0.67082
C          C       0.31473   0.31300   0.68247
C          C       0.68527   0.68700   0.68247
C          C       0.68700   0.31473   0.68247
C          C       0.31300   0.68527   0.68247
C          C       0.27474   0.32390   0.78039
C          C       0.72526   0.67610   0.78039
C          C       0.67610   0.27474   0.78039
C          C       0.32390   0.72526   0.78039
C          C       0.27518   0.36815   0.86458
C          C       0.72482   0.63185   0.86458
C          C       0.63185   0.27518   0.86458
C          C       0.36815   0.72482   0.86458
C          C       0.31549   0.40021   0.85490
C          C       0.68451   0.59979   0.85490
C          C       0.59979   0.31549   0.85490
C          C       0.40021   0.68451   0.85490
C          C       0.71047   0.23277   0.70144
C          C       0.28953   0.76723   0.70144
C          C       0.76723   0.71047   0.70144
C          C       0.23277   0.28953   0.70144
C          C       0.08626   0.09246   0.74657
C          C       0.91374   0.90754   0.74657
C          C       0.90754   0.08626   0.74657
C          C       0.09246   0.91374   0.74657
C          C       0.42287   0.60021   0.74580
C          C       0.57713   0.39979   0.74580
C          C       0.39979   0.42287   0.74580
C          C       0.60021   0.57713   0.74580
C          C       0.40289   0.55276   0.71857
C          C       0.59711   0.44724   0.71857
C          C       0.44724   0.40289   0.71857
C          C       0.55276   0.59711   0.71857
N          N       0.42636   0.50958   0.74889
N          N       0.57364   0.49042   0.74889
N          N       0.49042   0.42636   0.74889
N          N       0.50958   0.57364   0.74889
C          C       0.39246   0.47361   0.72353
C          C       0.60754   0.52639   0.72353
C          C       0.52639   0.39246   0.72353
C          C       0.47361   0.60754   0.72353
C          C       0.34819   0.49400   0.67478
C          C       0.65181   0.50600   0.67478
C          C       0.50600   0.34819   0.67478
C          C       0.49400   0.65181   0.67478
C          C       0.35491   0.54391   0.67015
C          C       0.64509   0.45609   0.67015
C          C       0.45609   0.35491   0.67015
C          C       0.54391   0.64509   0.67015
C          C       0.89555   0.03621   0.78084
C          C       0.10445   0.96379   0.78084
C          C       0.96379   0.89555   0.78084
C          C       0.03621   0.10445   0.78084
C          C       0.95642   0.10179   0.72314
C          C       0.04358   0.89821   0.72314
C          C       0.89821   0.95642   0.72314
C          C       0.10179   0.04358   0.72314
C          C       0.96935   0.14879   0.67443
C          C       0.03065   0.85121   0.67443
C          C       0.85121   0.96935   0.67443
C          C       0.14879   0.03065   0.67443
C          C       0.01970   0.15039   0.67108
C          C       0.98030   0.84961   0.67108
C          C       0.84961   0.01970   0.67108
C          C       0.15039   0.98030   0.67108
N          N       0.99742   0.07421   0.74887
N          N       0.00258   0.92579   0.74887
N          N       0.92579   0.99742   0.74887
N          N       0.07421   0.00258   0.74887
H          H       0.91382   0.82100   0.91010
H          H       0.08618   0.17900   0.91010
H          H       0.17900   0.91382   0.91010
H          H       0.82100   0.08618   0.91010
H          H       0.85379   0.75459   0.90343
H          H       0.14621   0.24541   0.90343
H          H       0.24541   0.85379   0.90343
H          H       0.75459   0.14621   0.90343
H          H       0.76650   0.83687   0.57404
H          H       0.23350   0.16313   0.57404
H          H       0.16313   0.76650   0.57404
H          H       0.83687   0.23350   0.57404
H          H       0.82828   0.90307   0.57903
H          H       0.17172   0.09693   0.57903
H          H       0.09693   0.82828   0.57903
H          H       0.90307   0.17172   0.57903
H          H       0.38486   0.33660   0.59432
H          H       0.61514   0.66340   0.59432
H          H       0.66340   0.38486   0.59432
H          H       0.33660   0.61514   0.59432
H          H       0.31523   0.27938   0.61460
H          H       0.68477   0.72062   0.61460
H          H       0.72062   0.31523   0.61460
H          H       0.27938   0.68477   0.61460
H          H       0.24480   0.37743   0.94079
H          H       0.75520   0.62257   0.94079
H          H       0.62257   0.24480   0.94079
H          H       0.37743   0.75520   0.94079
H          H       0.31537   0.43356   0.92303
H          H       0.68463   0.56644   0.92303
H          H       0.56644   0.31537   0.92303
H          H       0.43356   0.68463   0.92303
H          H       0.69965   0.20286   0.62606
H          H       0.30035   0.79714   0.62606
H          H       0.79714   0.69965   0.62606
H          H       0.20286   0.30035   0.62606
H          H       0.31390   0.47526   0.64926
H          H       0.68610   0.52474   0.64926
H          H       0.52474   0.31390   0.64926
H          H       0.47526   0.68610   0.64926
H          H       0.32687   0.57050   0.63868
H          H       0.67313   0.42950   0.63868
H          H       0.42950   0.32687   0.63868
H          H       0.57050   0.67313   0.63868
H          H       0.94528   0.17949   0.64794
H          H       0.05472   0.82051   0.64794
H          H       0.82051   0.94528   0.64794
H          H       0.17949   0.05472   0.64794
H          H       0.04140   0.18248   0.64079
H          H       0.95860   0.81752   0.64079
H          H       0.81752   0.04140   0.64079
H          H       0.18248   0.95860   0.64079
Zn         Zn      0.50000   0.50000   0.75000
Zn         Zn      0.00000   0.00000   0.75000
