data_crystal

_cell_length_a    38.74400
_cell_length_b    38.74400
_cell_length_c    6.93600
_cell_angle_alpha 90.00000
_cell_angle_beta  90.00000
_cell_angle_gamma 120.00000

_space_group_name_Hall 'P 1'
_space_group_name_H-M_alt  'P 1'

loop_
_symmetry_equiv_pos_as_xyz
 'x,y,z'

loop_
_atom_site_label
_atom_site_type_symbol
_atom_site_fract_x
_atom_site_fract_y
_atom_site_fract_z
C          C       0.68765   0.37554   0.25000
C          C       0.62446   0.31211   0.25000
C          C       0.68789   0.31235   0.25000
C          C       0.31235   0.62446   0.25000
C          C       0.37554   0.68789   0.25000
C          C       0.31211   0.68765   0.25000
C          C       0.70968   0.35492   0.25000
C          C       0.64508   0.35476   0.25000
C          C       0.64524   0.29032   0.25000
C          C       0.29032   0.64508   0.25000
C          C       0.35492   0.64524   0.25000
C          C       0.35476   0.70968   0.25000
C          C       0.75535   0.38042   0.25000
C          C       0.61958   0.37493   0.25000
C          C       0.62507   0.24465   0.25000
C          C       0.24465   0.61958   0.25000
C          C       0.38042   0.62507   0.25000
C          C       0.37493   0.75535   0.25000
C          C       0.78347   0.36958   0.25000
C          C       0.63042   0.41389   0.25000
C          C       0.58611   0.21653   0.25000
C          C       0.21653   0.63042   0.25000
C          C       0.36958   0.58611   0.25000
C          C       0.41389   0.78347   0.25000
H          H       0.76725   0.41192   0.25000
H          H       0.58808   0.35533   0.25000
H          H       0.64467   0.23275   0.25000
H          H       0.23275   0.58808   0.25000
H          H       0.41192   0.64467   0.25000
H          H       0.35533   0.76725   0.25000
H          H       0.77599   0.33920   0.25000
H          H       0.66080   0.43679   0.25000
H          H       0.56321   0.22401   0.25000
H          H       0.22401   0.66080   0.25000
H          H       0.33920   0.56321   0.25000
H          H       0.43679   0.77599   0.25000
C          C       0.85267   0.38163   0.25000
C          C       0.61837   0.47104   0.25000
C          C       0.52896   0.14733   0.25000
C          C       0.14733   0.61837   0.25000
C          C       0.38163   0.52896   0.25000
C          C       0.47104   0.85267   0.25000
H          H       0.84024   0.34960   0.25000
H          H       0.65040   0.49064   0.25000
H          H       0.50936   0.15976   0.25000
H          H       0.15976   0.65040   0.25000
H          H       0.34960   0.50936   0.25000
H          H       0.49064   0.84024   0.25000
C          C       0.89408   0.40604   0.25000
C          C       0.59396   0.48804   0.25000
C          C       0.51196   0.10592   0.25000
C          C       0.10592   0.59396   0.25000
C          C       0.40604   0.51196   0.25000
C          C       0.48804   0.89408   0.25000
H          H       0.91093   0.39088   0.25000
H          H       0.60912   0.52005   0.25000
H          H       0.47995   0.08907   0.25000
H          H       0.08907   0.60912   0.25000
H          H       0.39088   0.47995   0.25000
H          H       0.52005   0.91093   0.25000
C          C       0.91229   0.44808   0.25000
C          C       0.55192   0.46421   0.25000
C          C       0.53579   0.08771   0.25000
C          C       0.08771   0.55192   0.25000
C          C       0.44808   0.53579   0.25000
C          C       0.46421   0.91229   0.25000
C          C       0.88649   0.46407   0.25000
C          C       0.53593   0.42242   0.25000
C          C       0.57758   0.11351   0.25000
C          C       0.11351   0.53593   0.25000
C          C       0.46407   0.57758   0.25000
C          C       0.42242   0.88649   0.25000
H          H       0.89729   0.49559   0.25000
H          H       0.50441   0.40170   0.25000
H          H       0.59830   0.10271   0.25000
H          H       0.10271   0.50441   0.25000
H          H       0.49559   0.59830   0.25000
H          H       0.40170   0.89729   0.25000
C          C       0.84505   0.43957   0.25000
C          C       0.56043   0.40548   0.25000
C          C       0.59452   0.15495   0.25000
C          C       0.15495   0.56043   0.25000
C          C       0.43957   0.59452   0.25000
C          C       0.40548   0.84505   0.25000
H          H       0.82764   0.45425   0.25000
H          H       0.54575   0.37339   0.25000
H          H       0.62661   0.17236   0.25000
H          H       0.17236   0.54575   0.25000
H          H       0.45425   0.62661   0.25000
H          H       0.37339   0.82764   0.25000
C          C       0.82742   0.39781   0.25000
C          C       0.60219   0.42961   0.25000
C          C       0.57039   0.17258   0.25000
C          C       0.17258   0.60219   0.25000
C          C       0.39781   0.57039   0.25000
C          C       0.42961   0.82742   0.25000
C          C       0.97552   0.51666   0.25000
C          C       0.48334   0.45886   0.25000
C          C       0.54114   0.02448   0.25000
C          C       0.02448   0.48334   0.25000
C          C       0.51666   0.54114   0.25000
C          C       0.45886   0.97552   0.25000
H          H       0.95859   0.53175   0.25000
H          H       0.46825   0.42684   0.25000
H          H       0.57316   0.04141   0.25000
H          H       0.04141   0.46825   0.25000
H          H       0.53175   0.57316   0.25000
H          H       0.42684   0.95859   0.25000
C          C       0.01693   0.54117   0.25000
C          C       0.45883   0.47576   0.25000
C          C       0.52424   0.98307   0.25000
C          C       0.98307   0.45883   0.25000
C          C       0.54117   0.52424   0.25000
C          C       0.47576   0.01693   0.25000
H          H       0.02777   0.57270   0.25000
H          H       0.42730   0.45507   0.25000
H          H       0.54493   0.97223   0.25000
H          H       0.97223   0.42730   0.25000
H          H       0.57270   0.54493   0.25000
H          H       0.45507   0.02777   0.25000
C          C       0.04271   0.52528   0.25000
C          C       0.47472   0.51743   0.25000
C          C       0.48257   0.95729   0.25000
C          C       0.95729   0.47472   0.25000
C          C       0.52528   0.48257   0.25000
C          C       0.51743   0.04271   0.25000
C          C       0.71008   0.41864   0.25000
C          C       0.58136   0.29144   0.25000
C          C       0.70856   0.28992   0.25000
C          C       0.28992   0.58136   0.25000
C          C       0.41864   0.70856   0.25000
C          C       0.29144   0.71008   0.25000
N          N       0.72908   0.45312   0.25000
N          N       0.54688   0.27596   0.25000
N          N       0.72404   0.27092   0.25000
N          N       0.27092   0.54688   0.25000
N          N       0.45312   0.72404   0.25000
N          N       0.27596   0.72908   0.25000
C          C       0.68765   0.37554   0.75000
C          C       0.62446   0.31211   0.75000
C          C       0.68789   0.31235   0.75000
C          C       0.31235   0.62446   0.75000
C          C       0.37554   0.68789   0.75000
C          C       0.31211   0.68765   0.75000
C          C       0.70968   0.35492   0.75000
C          C       0.64508   0.35476   0.75000
C          C       0.64524   0.29032   0.75000
C          C       0.29032   0.64508   0.75000
C          C       0.35492   0.64524   0.75000
C          C       0.35476   0.70968   0.75000
C          C       0.75535   0.38042   0.75000
C          C       0.61958   0.37493   0.75000
C          C       0.62507   0.24465   0.75000
C          C       0.24465   0.61958   0.75000
C          C       0.38042   0.62507   0.75000
C          C       0.37493   0.75535   0.75000
C          C       0.78347   0.36958   0.75000
C          C       0.63042   0.41389   0.75000
C          C       0.58611   0.21653   0.75000
C          C       0.21653   0.63042   0.75000
C          C       0.36958   0.58611   0.75000
C          C       0.41389   0.78347   0.75000
H          H       0.76725   0.41192   0.75000
H          H       0.58808   0.35533   0.75000
H          H       0.64467   0.23275   0.75000
H          H       0.23275   0.58808   0.75000
H          H       0.41192   0.64467   0.75000
H          H       0.35533   0.76725   0.75000
H          H       0.77599   0.33920   0.75000
H          H       0.66080   0.43679   0.75000
H          H       0.56321   0.22401   0.75000
H          H       0.22401   0.66080   0.75000
H          H       0.33920   0.56321   0.75000
H          H       0.43679   0.77599   0.75000
C          C       0.85267   0.38163   0.75000
C          C       0.61837   0.47104   0.75000
C          C       0.52896   0.14733   0.75000
C          C       0.14733   0.61837   0.75000
C          C       0.38163   0.52896   0.75000
C          C       0.47104   0.85267   0.75000
H          H       0.84024   0.34960   0.75000
H          H       0.65040   0.49064   0.75000
H          H       0.50936   0.15976   0.75000
H          H       0.15976   0.65040   0.75000
H          H       0.34960   0.50936   0.75000
H          H       0.49064   0.84024   0.75000
C          C       0.89408   0.40604   0.75000
C          C       0.59396   0.48804   0.75000
C          C       0.51196   0.10592   0.75000
C          C       0.10592   0.59396   0.75000
C          C       0.40604   0.51196   0.75000
C          C       0.48804   0.89408   0.75000
H          H       0.91093   0.39088   0.75000
H          H       0.60912   0.52005   0.75000
H          H       0.47995   0.08907   0.75000
H          H       0.08907   0.60912   0.75000
H          H       0.39088   0.47995   0.75000
H          H       0.52005   0.91093   0.75000
C          C       0.91229   0.44808   0.75000
C          C       0.55192   0.46421   0.75000
C          C       0.53579   0.08771   0.75000
C          C       0.08771   0.55192   0.75000
C          C       0.44808   0.53579   0.75000
C          C       0.46421   0.91229   0.75000
C          C       0.88649   0.46407   0.75000
C          C       0.53593   0.42242   0.75000
C          C       0.57758   0.11351   0.75000
C          C       0.11351   0.53593   0.75000
C          C       0.46407   0.57758   0.75000
C          C       0.42242   0.88649   0.75000
H          H       0.89729   0.49559   0.75000
H          H       0.50441   0.40170   0.75000
H          H       0.59830   0.10271   0.75000
H          H       0.10271   0.50441   0.75000
H          H       0.49559   0.59830   0.75000
H          H       0.40170   0.89729   0.75000
C          C       0.84505   0.43957   0.75000
C          C       0.56043   0.40548   0.75000
C          C       0.59452   0.15495   0.75000
C          C       0.15495   0.56043   0.75000
C          C       0.43957   0.59452   0.75000
C          C       0.40548   0.84505   0.75000
H          H       0.82764   0.45425   0.75000
H          H       0.54575   0.37339   0.75000
H          H       0.62661   0.17236   0.75000
H          H       0.17236   0.54575   0.75000
H          H       0.45425   0.62661   0.75000
H          H       0.37339   0.82764   0.75000
C          C       0.82742   0.39781   0.75000
C          C       0.60219   0.42961   0.75000
C          C       0.57039   0.17258   0.75000
C          C       0.17258   0.60219   0.75000
C          C       0.39781   0.57039   0.75000
C          C       0.42961   0.82742   0.75000
C          C       0.97552   0.51666   0.75000
C          C       0.48334   0.45886   0.75000
C          C       0.54114   0.02448   0.75000
C          C       0.02448   0.48334   0.75000
C          C       0.51666   0.54114   0.75000
C          C       0.45886   0.97552   0.75000
H          H       0.95859   0.53175   0.75000
H          H       0.46825   0.42684   0.75000
H          H       0.57316   0.04141   0.75000
H          H       0.04141   0.46825   0.75000
H          H       0.53175   0.57316   0.75000
H          H       0.42684   0.95859   0.75000
C          C       0.01693   0.54117   0.75000
C          C       0.45883   0.47576   0.75000
C          C       0.52424   0.98307   0.75000
C          C       0.98307   0.45883   0.75000
C          C       0.54117   0.52424   0.75000
C          C       0.47576   0.01693   0.75000
H          H       0.02777   0.57270   0.75000
H          H       0.42730   0.45507   0.75000
H          H       0.54493   0.97223   0.75000
H          H       0.97223   0.42730   0.75000
H          H       0.57270   0.54493   0.75000
H          H       0.45507   0.02777   0.75000
C          C       0.04271   0.52528   0.75000
C          C       0.47472   0.51743   0.75000
C          C       0.48257   0.95729   0.75000
C          C       0.95729   0.47472   0.75000
C          C       0.52528   0.48257   0.75000
C          C       0.51743   0.04271   0.75000
C          C       0.71008   0.41864   0.75000
C          C       0.58136   0.29144   0.75000
C          C       0.70856   0.28992   0.75000
C          C       0.28992   0.58136   0.75000
C          C       0.41864   0.70856   0.75000
C          C       0.29144   0.71008   0.75000
N          N       0.72908   0.45312   0.75000
N          N       0.54688   0.27596   0.75000
N          N       0.72404   0.27092   0.75000
N          N       0.27092   0.54688   0.75000
N          N       0.45312   0.72404   0.75000
N          N       0.27596   0.72908   0.75000
