data_crystal

_cell_length_a    30.28800
_cell_length_b    30.28800
_cell_length_c    6.93600
_cell_angle_alpha 90.00000
_cell_angle_beta  90.00000
_cell_angle_gamma 120.00000

_symmetry_space_group_name_Hall 'P 1'
_symmetry_space_group_name_H-M  'P 1'

loop_
_symmetry_equiv_pos_as_xyz
 'x,y,z'

loop_
_atom_site_label
_atom_site_type_symbol
_atom_site_fract_x
_atom_site_fract_y
_atom_site_fract_z
C          C       0.69059   0.38689   0.19018
C          C       0.61311   0.30370   0.19018
C          C       0.69630   0.30941   0.19018
C          C       0.30941   0.61311   0.19018
C          C       0.38689   0.69630   0.19018
C          C       0.30370   0.69059   0.19018
C          C       0.72051   0.36301   0.19528
C          C       0.63699   0.35750   0.19528
C          C       0.64250   0.27949   0.19528
C          C       0.27949   0.63699   0.19528
C          C       0.36301   0.64250   0.19528
C          C       0.35750   0.72051   0.19528
C          C       0.77740   0.39582   0.19564
C          C       0.60418   0.38158   0.19564
C          C       0.61842   0.22260   0.19564
C          C       0.22260   0.60418   0.19564
C          C       0.39582   0.61842   0.19564
C          C       0.38158   0.77740   0.19564
C          C       0.80897   0.38469   0.28770
C          C       0.61531   0.42428   0.28770
C          C       0.57572   0.19103   0.28770
C          C       0.19103   0.61531   0.28770
C          C       0.38469   0.57572   0.28770
C          C       0.42428   0.80897   0.28770
H          H       0.79405   0.43157   0.12054
H          H       0.56843   0.36248   0.12054
H          H       0.63752   0.20595   0.12054
H          H       0.20595   0.56843   0.12054
H          H       0.43157   0.63752   0.12054
H          H       0.36248   0.79405   0.12054
H          H       0.79465   0.34995   0.36748
H          H       0.65005   0.44470   0.36748
H          H       0.55530   0.20535   0.36748
H          H       0.20535   0.65005   0.36748
H          H       0.34995   0.55530   0.36748
H          H       0.44470   0.79465   0.36748
C          C       0.89616   0.39894   0.24165
C          C       0.60106   0.49722   0.24165
C          C       0.50278   0.10384   0.24165
C          C       0.10384   0.60106   0.24165
C          C       0.39894   0.50278   0.24165
C          C       0.49722   0.89616   0.24165
H          H       0.87967   0.35891   0.20744
H          H       0.64109   0.52076   0.20744
H          H       0.47924   0.12033   0.20744
H          H       0.12033   0.64109   0.20744
H          H       0.35891   0.47924   0.20744
H          H       0.52076   0.87967   0.20744
C          C       0.94908   0.43080   0.23767
C          C       0.56920   0.51828   0.23767
C          C       0.48172   0.05092   0.23767
C          C       0.05092   0.56920   0.23767
C          C       0.43080   0.48172   0.23767
C          C       0.51828   0.94908   0.23767
H          H       0.97238   0.41466   0.19673
H          H       0.58534   0.55772   0.19673
H          H       0.44228   0.02762   0.19673
H          H       0.02762   0.58534   0.19673
H          H       0.41466   0.44228   0.19673
H          H       0.55772   0.97238   0.19673
C          C       0.97138   0.48290   0.28238
C          C       0.51710   0.48848   0.28238
C          C       0.51152   0.02862   0.28238
C          C       0.02862   0.51710   0.28238
C          C       0.48290   0.51152   0.28238
C          C       0.48848   0.97138   0.28238
C          C       0.93907   0.50228   0.32810
C          C       0.49772   0.43679   0.32810
C          C       0.56321   0.06093   0.32810
C          C       0.06093   0.49772   0.32810
C          C       0.50228   0.56321   0.32810
C          C       0.43679   0.93907   0.32810
H          H       0.95458   0.54163   0.36912
H          H       0.45837   0.41295   0.36912
H          H       0.58705   0.04542   0.36912
H          H       0.04542   0.45837   0.36912
H          H       0.54163   0.58705   0.36912
H          H       0.41295   0.95458   0.36912
C          C       0.88613   0.47066   0.32632
C          C       0.52934   0.41547   0.32632
C          C       0.58453   0.11387   0.32632
C          C       0.11387   0.52934   0.32632
C          C       0.47066   0.58453   0.32632
C          C       0.41547   0.88613   0.32632
H          H       0.86200   0.48627   0.36296
H          H       0.51373   0.37573   0.36296
H          H       0.62427   0.13800   0.36296
H          H       0.13800   0.51373   0.36296
H          H       0.48627   0.62427   0.36296
H          H       0.37573   0.86200   0.36296
C          C       0.86448   0.41882   0.28367
C          C       0.58118   0.44566   0.28367
C          C       0.55434   0.13552   0.28367
C          C       0.13552   0.58118   0.28367
C          C       0.41882   0.55434   0.28367
C          C       0.44566   0.86448   0.28367
C          C       0.71564   0.44162   0.16336
C          C       0.55838   0.27402   0.16336
C          C       0.72598   0.28436   0.16336
C          C       0.28436   0.55838   0.16336
C          C       0.44162   0.72598   0.16336
C          C       0.27402   0.71564   0.16336
N          N       0.73561   0.48526   0.14122
N          N       0.51474   0.25035   0.14122
N          N       0.74965   0.26439   0.14122
N          N       0.26439   0.51474   0.14122
N          N       0.48526   0.74965   0.14122
N          N       0.25035   0.73561   0.14122
C          C       0.69059   0.38689   0.69018
C          C       0.61311   0.30370   0.69018
C          C       0.69630   0.30941   0.69018
C          C       0.30941   0.61311   0.69018
C          C       0.38689   0.69630   0.69018
C          C       0.30370   0.69059   0.69018
C          C       0.72051   0.36301   0.69528
C          C       0.63699   0.35750   0.69528
C          C       0.64250   0.27949   0.69528
C          C       0.27949   0.63699   0.69528
C          C       0.36301   0.64250   0.69528
C          C       0.35750   0.72051   0.69528
C          C       0.77740   0.39582   0.69564
C          C       0.60418   0.38158   0.69564
C          C       0.61842   0.22260   0.69564
C          C       0.22260   0.60418   0.69564
C          C       0.39582   0.61842   0.69564
C          C       0.38158   0.77740   0.69564
C          C       0.80897   0.38469   0.78771
C          C       0.61531   0.42428   0.78771
C          C       0.57572   0.19103   0.78771
C          C       0.19103   0.61531   0.78771
C          C       0.38469   0.57572   0.78771
C          C       0.42428   0.80897   0.78771
H          H       0.79405   0.43157   0.62054
H          H       0.56843   0.36248   0.62054
H          H       0.63752   0.20595   0.62054
H          H       0.20595   0.56843   0.62054
H          H       0.43157   0.63752   0.62054
H          H       0.36248   0.79405   0.62054
H          H       0.79465   0.34995   0.86748
H          H       0.65005   0.44470   0.86748
H          H       0.55530   0.20535   0.86748
H          H       0.20535   0.65005   0.86748
H          H       0.34995   0.55530   0.86748
H          H       0.44470   0.79465   0.86748
C          C       0.89616   0.39894   0.74165
C          C       0.60106   0.49722   0.74165
C          C       0.50278   0.10384   0.74165
C          C       0.10384   0.60106   0.74165
C          C       0.39894   0.50278   0.74165
C          C       0.49722   0.89616   0.74165
H          H       0.87967   0.35891   0.70744
H          H       0.64109   0.52076   0.70744
H          H       0.47924   0.12033   0.70744
H          H       0.12033   0.64109   0.70744
H          H       0.35891   0.47924   0.70744
H          H       0.52076   0.87967   0.70744
C          C       0.94908   0.43080   0.73767
C          C       0.56920   0.51828   0.73767
C          C       0.48172   0.05092   0.73767
C          C       0.05092   0.56920   0.73767
C          C       0.43080   0.48172   0.73767
C          C       0.51828   0.94908   0.73767
H          H       0.97238   0.41466   0.69673
H          H       0.58534   0.55772   0.69673
H          H       0.44228   0.02762   0.69673
H          H       0.02762   0.58534   0.69673
H          H       0.41466   0.44228   0.69673
H          H       0.55772   0.97238   0.69673
C          C       0.97138   0.48290   0.78238
C          C       0.51710   0.48848   0.78238
C          C       0.51152   0.02862   0.78238
C          C       0.02862   0.51710   0.78238
C          C       0.48290   0.51152   0.78238
C          C       0.48848   0.97138   0.78238
C          C       0.93907   0.50228   0.82810
C          C       0.49772   0.43679   0.82810
C          C       0.56321   0.06093   0.82810
C          C       0.06093   0.49772   0.82810
C          C       0.50228   0.56321   0.82810
C          C       0.43679   0.93907   0.82810
H          H       0.95458   0.54163   0.86912
H          H       0.45837   0.41295   0.86912
H          H       0.58705   0.04542   0.86912
H          H       0.04542   0.45837   0.86912
H          H       0.54163   0.58705   0.86912
H          H       0.41295   0.95458   0.86912
C          C       0.88613   0.47066   0.82632
C          C       0.52934   0.41547   0.82632
C          C       0.58453   0.11387   0.82632
C          C       0.11387   0.52934   0.82632
C          C       0.47066   0.58453   0.82632
C          C       0.41547   0.88613   0.82632
H          H       0.86200   0.48627   0.86296
H          H       0.51373   0.37573   0.86296
H          H       0.62427   0.13800   0.86296
H          H       0.13800   0.51373   0.86296
H          H       0.48627   0.62427   0.86296
H          H       0.37573   0.86200   0.86296
C          C       0.86448   0.41882   0.78367
C          C       0.58118   0.44566   0.78367
C          C       0.55434   0.13552   0.78367
C          C       0.13552   0.58118   0.78367
C          C       0.41882   0.55434   0.78367
C          C       0.44566   0.86448   0.78367
C          C       0.71564   0.44162   0.66336
C          C       0.55838   0.27402   0.66336
C          C       0.72598   0.28436   0.66336
C          C       0.28436   0.55838   0.66336
C          C       0.44162   0.72598   0.66336
C          C       0.27402   0.71564   0.66336
N          N       0.73561   0.48526   0.64122
N          N       0.51474   0.25035   0.64122
N          N       0.74965   0.26439   0.64122
N          N       0.26439   0.51474   0.64122
N          N       0.48526   0.74965   0.64122
N          N       0.25035   0.73561   0.64122
