data_crystal

_cell_length_a    18.78900
_cell_length_b    18.78900
_cell_length_c    7.39600
_cell_angle_alpha 90.00000
_cell_angle_beta  90.00000
_cell_angle_gamma 120.00000

_space_group_name_Hall 'P 1'
_space_group_name_H-M_alt  'P 1'

loop_
_symmetry_equiv_pos_as_xyz
'x,y,z'

loop_
_atom_site_label
_atom_site_type_symbol
_atom_site_fract_x
_atom_site_fract_y
_atom_site_fract_z
C          C       0.71410   0.29548   0.30601
C          C       0.70452   0.41862   0.30601
C          C       0.58138   0.28590   0.30601
C          C       0.62728   0.24871   0.30099
C          C       0.75129   0.37857   0.30099
C          C       0.62143   0.37272   0.30099
C          C       0.58678   0.15679   0.30218
C          C       0.84321   0.42999   0.30218
C          C       0.57001   0.41322   0.30218
C          C       0.52244   0.10984   0.21499
C          C       0.89016   0.41260   0.21499
C          C       0.58740   0.47756   0.21499
H          H       0.61611   0.12958   0.38005
H          H       0.87042   0.48653   0.38005
H          H       0.51347   0.38389   0.38005
H          H       0.49148   0.13367   0.13215
H          H       0.86633   0.35781   0.13215
H          H       0.64219   0.50852   0.13215
C          C       0.76048   0.25357   0.33233
C          C       0.74643   0.50691   0.33233
C          C       0.49309   0.23952   0.33233
N          N       0.79757   0.22026   0.35404
N          N       0.77974   0.57731   0.35404
N          N       0.42269   0.20243   0.35404
C          C       0.56592   0.59777   0.29209
C          C       0.40223   0.96815   0.29209
C          C       0.03185   0.43408   0.29209
H          H       0.62798   0.63053   0.34530
H          H       0.36947   0.99745   0.34530
H          H       0.00255   0.37202   0.34530
C          C       0.51644   0.63376   0.30043
C          C       0.36624   0.88268   0.30043
C          C       0.11732   0.48356   0.30043
H          H       0.54149   0.69291   0.36578
H          H       0.30709   0.84858   0.36578
H          H       0.15142   0.45851   0.36578
C          C       0.43566   0.59279   0.23047
C          C       0.40721   0.84287   0.23047
C          C       0.15713   0.56434   0.23047
C          C       0.40574   0.51348   0.15689
C          C       0.48652   0.89226   0.15689
C          C       0.10774   0.59426   0.15689
H          H       0.34593   0.48049   0.09405
H          H       0.51951   0.86544   0.09405
H          H       0.13456   0.65407   0.09405
C          C       0.45407   0.47619   0.15681
C          C       0.52381   0.97788   0.15681
C          C       0.02212   0.54593   0.15681
H          H       0.42963   0.41521   0.10013
H          H       0.58479   0.01442   0.10013
H          H       0.98558   0.57037   0.10013
C          C       0.53463   0.51857   0.22256
C          C       0.48143   0.01606   0.22256
C          C       0.98394   0.46537   0.22256
C          C       0.29709   0.58454   0.23330
C          C       0.41546   0.71255   0.23330
C          C       0.28745   0.70291   0.23330
H          H       0.26863   0.51862   0.23308
H          H       0.48138   0.75001   0.23308
H          H       0.24999   0.73137   0.23308
C          C       0.38339   0.63248   0.23301
C          C       0.36752   0.75091   0.23301
C          C       0.24909   0.61661   0.23301
C          C       0.71410   0.29548   0.80601
C          C       0.70452   0.41862   0.80601
C          C       0.58138   0.28590   0.80601
C          C       0.62728   0.24871   0.80099
C          C       0.75129   0.37857   0.80099
C          C       0.62143   0.37272   0.80099
C          C       0.58678   0.15679   0.80217
C          C       0.84321   0.42999   0.80217
C          C       0.57001   0.41322   0.80217
C          C       0.52244   0.10984   0.71499
C          C       0.89016   0.41260   0.71499
C          C       0.58740   0.47756   0.71499
H          H       0.61611   0.12958   0.88004
H          H       0.87042   0.48653   0.88004
H          H       0.51347   0.38389   0.88004
H          H       0.49148   0.13367   0.63215
H          H       0.86633   0.35781   0.63215
H          H       0.64219   0.50852   0.63215
C          C       0.76048   0.25357   0.83233
C          C       0.74643   0.50691   0.83233
C          C       0.49309   0.23952   0.83233
N          N       0.79757   0.22026   0.85404
N          N       0.77974   0.57731   0.85404
N          N       0.42269   0.20243   0.85404
C          C       0.56592   0.59777   0.79209
C          C       0.40223   0.96815   0.79209
C          C       0.03185   0.43408   0.79209
H          H       0.62798   0.63053   0.84530
H          H       0.36947   0.99745   0.84530
H          H       0.00255   0.37202   0.84530
C          C       0.51644   0.63376   0.80043
C          C       0.36624   0.88268   0.80043
C          C       0.11732   0.48356   0.80043
H          H       0.54149   0.69291   0.86578
H          H       0.30709   0.84858   0.86578
H          H       0.15142   0.45851   0.86578
C          C       0.43566   0.59279   0.73047
C          C       0.40721   0.84287   0.73047
C          C       0.15713   0.56434   0.73047
C          C       0.40574   0.51348   0.65689
C          C       0.48652   0.89226   0.65689
C          C       0.10774   0.59426   0.65689
H          H       0.34593   0.48049   0.59405
H          H       0.51951   0.86544   0.59405
H          H       0.13456   0.65407   0.59405
C          C       0.45407   0.47619   0.65681
C          C       0.52381   0.97788   0.65681
C          C       0.02212   0.54593   0.65681
H          H       0.42963   0.41521   0.60013
H          H       0.58479   0.01442   0.60013
H          H       0.98558   0.57037   0.60013
C          C       0.53463   0.51857   0.72257
C          C       0.48143   0.01606   0.72257
C          C       0.98394   0.46537   0.72257
C          C       0.29709   0.58454   0.73330
C          C       0.41546   0.71255   0.73330
C          C       0.28745   0.70291   0.73330
H          H       0.26863   0.51862   0.73308
H          H       0.48138   0.75001   0.73308
H          H       0.24999   0.73137   0.73308
C          C       0.38339   0.63248   0.73301
C          C       0.36752   0.75091   0.73301
C          C       0.24909   0.61661   0.73301
