data_crystal

_cell_length_a    23.45400
_cell_length_b    20.75400
_cell_length_c    23.84800
_cell_angle_alpha 90.00000
_cell_angle_beta  91.56000
_cell_angle_gamma 90.00000

_space_group_name_Hall 'P 1'
_space_group_name_H-M_alt  'P 1'

loop_
_symmetry_equiv_pos_as_xyz
 'x,y,z'

loop_
_atom_site_label
_atom_site_type_symbol
_atom_site_fract_x
_atom_site_fract_y
_atom_site_fract_z
C          C       0.95228   0.54670   0.47508
C          C       0.04772   0.54670   0.52492
C          C       0.45228   0.04670   0.47508
C          C       0.54772   0.04670   0.52492
C          C       0.02369   0.46057   0.45353
C          C       0.97631   0.46057   0.54647
C          C       0.52369   0.96057   0.45353
C          C       0.47631   0.96057   0.54647
C          C       0.07084   0.50463   0.47779
C          C       0.92916   0.50463   0.52221
C          C       0.57084   0.00463   0.47779
C          C       0.42916   0.00463   0.52221
C          C       0.97556   0.50267   0.42904
C          C       0.02444   0.50267   0.57096
C          C       0.47556   0.00267   0.42904
C          C       0.52444   0.00267   0.57096
C          C       0.53954   0.06448   0.96523
C          C       0.46046   0.06448   0.03477
C          C       0.03954   0.56448   0.96523
C          C       0.96046   0.56448   0.03477
C          C       0.46379   0.97869   0.95990
C          C       0.53621   0.97869   0.04010
C          C       0.96379   0.47869   0.95990
C          C       0.03621   0.47869   0.04010
C          C       0.42043   0.10725   0.06760
C          C       0.57957   0.10725   0.93240
C          C       0.92043   0.60725   0.06760
C          C       0.07957   0.60725   0.93240
C          C       0.50349   0.02127   0.92529
C          C       0.49651   0.02127   0.07471
C          C       0.00349   0.52127   0.92529
C          C       0.99651   0.52127   0.07471
C          C       0.57502   0.02211   0.00566
C          C       0.42498   0.02211   0.99434
C          C       0.07502   0.52211   0.00566
C          C       0.92498   0.52211   0.99434
C          C       0.07399   0.43597   0.07747
C          C       0.92601   0.43597   0.92253
C          C       0.57399   0.93597   0.07747
C          C       0.42601   0.93597   0.92253
C          C       0.04846   0.41817   0.40851
C          C       0.95154   0.41817   0.59149
C          C       0.54846   0.91817   0.40851
C          C       0.45154   0.91817   0.59149
C          C       0.13650   0.24518   0.15147
C          C       0.86350   0.24518   0.84853
C          C       0.63650   0.74518   0.15147
C          C       0.36350   0.74518   0.84853
C          C       0.09570   0.28431   0.12586
C          C       0.90430   0.28431   0.87414
C          C       0.59570   0.78431   0.12586
C          C       0.40430   0.78431   0.87414
N          N       0.05438   0.39051   0.10871
N          N       0.94562   0.39051   0.89129
N          N       0.55438   0.89051   0.10871
N          N       0.44562   0.89051   0.89129
C          C       0.17653   0.27182   0.18965
C          C       0.82347   0.27182   0.81035
C          C       0.67653   0.77182   0.18965
C          C       0.32347   0.77182   0.81035
C          C       0.17553   0.33828   0.20066
C          C       0.82447   0.33828   0.79934
C          C       0.67553   0.83828   0.20066
C          C       0.32447   0.83828   0.79934
C          C       0.13479   0.37692   0.17471
C          C       0.86521   0.37692   0.82529
C          C       0.63479   0.87692   0.17471
C          C       0.36521   0.87692   0.82529
C          C       0.09409   0.35082   0.13683
C          C       0.90591   0.35082   0.86317
C          C       0.59409   0.85082   0.13683
C          C       0.40591   0.85082   0.86317
N          N       0.09097   0.38110   0.42122
N          N       0.90903   0.38110   0.57878
N          N       0.59097   0.88110   0.42122
N          N       0.40903   0.88110   0.57878
C          C       0.18892   0.27110   0.31287
C          C       0.81108   0.27110   0.68713
C          C       0.68892   0.77110   0.31287
C          C       0.31108   0.77110   0.68713
C          C       0.21457   0.30664   0.35682
C          C       0.78543   0.30664   0.64318
C          C       0.71457   0.80664   0.35682
C          C       0.28543   0.80664   0.64318
C          C       0.18137   0.34204   0.39227
C          C       0.81863   0.34204   0.60773
C          C       0.68137   0.84204   0.39227
C          C       0.31863   0.84204   0.60773
C          C       0.12199   0.34368   0.38462
C          C       0.87801   0.34368   0.61538
C          C       0.62199   0.84368   0.38462
C          C       0.37801   0.84368   0.61538
C          C       0.12926   0.27114   0.30561
C          C       0.87074   0.27114   0.69439
C          C       0.62926   0.77114   0.30561
C          C       0.37074   0.77114   0.69439
C          C       0.09635   0.30768   0.34086
C          C       0.90365   0.30768   0.65914
C          C       0.59635   0.80768   0.34086
C          C       0.40365   0.80768   0.65914
C          C       0.22657   0.23218   0.27631
C          C       0.77343   0.23218   0.72369
C          C       0.72657   0.73218   0.27631
C          C       0.27343   0.73218   0.72369
C          C       0.21949   0.22977   0.21940
C          C       0.78051   0.22977   0.78060
C          C       0.71949   0.72977   0.21940
C          C       0.28051   0.72977   0.78060
N          N       0.38054   0.08336   0.09778
N          N       0.61946   0.08336   0.90222
N          N       0.88054   0.58336   0.09778
N          N       0.11946   0.58336   0.90222
C          C       0.25781   0.18945   0.18448
C          C       0.74219   0.18945   0.81552
C          C       0.75781   0.68945   0.18448
C          C       0.24219   0.68945   0.81552
C          C       0.27090   0.12566   0.19980
C          C       0.72910   0.12566   0.80020
C          C       0.77090   0.62566   0.19980
C          C       0.22910   0.62566   0.80020
C          C       0.31072   0.09123   0.17039
C          C       0.68928   0.09123   0.82961
C          C       0.81072   0.59123   0.17039
C          C       0.18928   0.59123   0.82961
C          C       0.33861   0.11886   0.12496
C          C       0.66139   0.11886   0.87504
C          C       0.83861   0.61886   0.12496
C          C       0.16139   0.61886   0.87504
C          C       0.28304   0.21645   0.13729
C          C       0.71696   0.21645   0.86271
C          C       0.78304   0.71645   0.13729
C          C       0.21696   0.71645   0.86271
C          C       0.32281   0.18157   0.10817
C          C       0.67719   0.18157   0.89183
C          C       0.82281   0.68157   0.10817
C          C       0.17719   0.68157   0.89183
C          C       0.40362   0.08650   0.45013
C          C       0.59638   0.08650   0.54987
C          C       0.90362   0.58650   0.45013
C          C       0.09638   0.58650   0.54987
N          N       0.40927   0.12152   0.40574
N          N       0.59073   0.12152   0.59426
N          N       0.90927   0.62152   0.40574
N          N       0.09073   0.62152   0.59426
C          C       0.27485   0.19967   0.30700
C          C       0.72515   0.19967   0.69300
C          C       0.77485   0.69967   0.30700
C          C       0.22515   0.69967   0.69300
C          C       0.33179   0.21116   0.29327
C          C       0.66821   0.21116   0.70673
C          C       0.83179   0.71116   0.29327
C          C       0.16821   0.71116   0.70673
C          C       0.37543   0.18500   0.32617
C          C       0.62457   0.18500   0.67383
C          C       0.87543   0.68500   0.32617
C          C       0.12457   0.68500   0.67383
C          C       0.36390   0.14736   0.37351
C          C       0.63610   0.14736   0.62649
C          C       0.86390   0.64736   0.37351
C          C       0.13610   0.64736   0.62649
C          C       0.26264   0.16165   0.35365
C          C       0.73736   0.16165   0.64635
C          C       0.76264   0.66165   0.35365
C          C       0.23736   0.66165   0.64635
C          C       0.30648   0.13566   0.38601
C          C       0.69352   0.13566   0.61399
C          C       0.80648   0.63566   0.38601
C          C       0.19352   0.63566   0.61399
H          H       0.08800   0.53515   0.44424
H          H       0.91200   0.53515   0.55576
H          H       0.58800   0.03515   0.44424
H          H       0.41200   0.03515   0.55576
H          H       0.10697   0.47546   0.49428
H          H       0.89303   0.47546   0.50572
H          H       0.60697   0.97546   0.49428
H          H       0.39303   0.97546   0.50572
H          H       0.99160   0.53181   0.39405
H          H       0.00840   0.53181   0.60595
H          H       0.49160   0.03181   0.39405
H          H       0.50840   0.03181   0.60595
H          H       0.94095   0.47224   0.41117
H          H       0.05905   0.47224   0.58883
H          H       0.44095   0.97224   0.41117
H          H       0.55905   0.97224   0.58883
H          H       0.42652   0.15957   0.06309
H          H       0.57348   0.15957   0.93691
H          H       0.92652   0.65957   0.06309
H          H       0.07348   0.65957   0.93691
H          H       0.53153   0.99084   0.89990
H          H       0.46847   0.99084   0.10010
H          H       0.03153   0.49084   0.89990
H          H       0.96847   0.49084   0.10010
H          H       0.47822   0.05122   0.89550
H          H       0.52178   0.05122   0.10450
H          H       0.97822   0.55122   0.89550
H          H       0.02178   0.55122   0.10450
H          H       0.60163   0.05266   0.03386
H          H       0.39837   0.05266   0.96614
H          H       0.10163   0.55266   0.03386
H          H       0.89837   0.55266   0.96614
H          H       0.60489   0.99205   0.98195
H          H       0.39511   0.99205   0.01805
H          H       0.10489   0.49205   0.98195
H          H       0.89511   0.49205   0.01805
H          H       0.12020   0.44462   0.07462
H          H       0.87980   0.44462   0.92538
H          H       0.62020   0.94462   0.07462
H          H       0.37980   0.94462   0.92538
H          H       0.03020   0.42172   0.36558
H          H       0.96980   0.42172   0.63442
H          H       0.53020   0.92172   0.36558
H          H       0.46980   0.92172   0.63442
H          H       0.13647   0.19334   0.14201
H          H       0.86353   0.19334   0.85799
H          H       0.63647   0.69334   0.14201
H          H       0.36353   0.69334   0.85799
H          H       0.06478   0.26287   0.09586
H          H       0.93522   0.26287   0.90414
H          H       0.56478   0.76287   0.09586
H          H       0.43522   0.76287   0.90414
H          H       0.20655   0.36064   0.23007
H          H       0.79345   0.36064   0.76993
H          H       0.70655   0.86064   0.23007
H          H       0.29345   0.86064   0.76993
H          H       0.13485   0.42881   0.18392
H          H       0.86515   0.42881   0.81608
H          H       0.63485   0.92881   0.18392
H          H       0.36515   0.92881   0.81608
H          H       0.26108   0.30715   0.36397
H          H       0.73892   0.30715   0.63603
H          H       0.76108   0.80715   0.36397
H          H       0.23892   0.80715   0.63603
H          H       0.20216   0.36966   0.42641
H          H       0.79784   0.36966   0.57359
H          H       0.70216   0.86966   0.42641
H          H       0.29784   0.86966   0.57359
H          H       0.10774   0.24262   0.27249
H          H       0.89226   0.24262   0.72751
H          H       0.60774   0.74262   0.27249
H          H       0.39226   0.74262   0.72751
H          H       0.04979   0.30776   0.33447
H          H       0.95021   0.30776   0.66553
H          H       0.54979   0.80776   0.33447
H          H       0.45021   0.80776   0.66553
H          H       0.25130   0.10260   0.23602
H          H       0.74870   0.10260   0.76398
H          H       0.75130   0.60260   0.23602
H          H       0.24870   0.60260   0.76398
H          H       0.32150   0.04203   0.18405
H          H       0.67850   0.04203   0.81595
H          H       0.82150   0.54203   0.18405
H          H       0.17850   0.54203   0.81595
H          H       0.27338   0.26608   0.12399
H          H       0.72662   0.26608   0.87601
H          H       0.77338   0.76608   0.12399
H          H       0.22662   0.76608   0.87601
H          H       0.34247   0.20453   0.07198
H          H       0.65753   0.20453   0.92802
H          H       0.84247   0.70453   0.07198
H          H       0.15753   0.70453   0.92802
H          H       0.36246   0.08030   0.47045
H          H       0.63754   0.08030   0.52955
H          H       0.86246   0.58030   0.47045
H          H       0.13754   0.58030   0.52955
H          H       0.34260   0.24190   0.25758
H          H       0.65740   0.24190   0.74242
H          H       0.84260   0.74190   0.25758
H          H       0.15740   0.74190   0.74242
H          H       0.41980   0.19447   0.31497
H          H       0.58020   0.19447   0.68503
H          H       0.91980   0.69447   0.31497
H          H       0.08020   0.69447   0.68503
H          H       0.21841   0.15288   0.36576
H          H       0.78159   0.15288   0.63424
H          H       0.71841   0.65288   0.36576
H          H       0.28159   0.65288   0.63424
H          H       0.29456   0.10605   0.42195
H          H       0.70544   0.10605   0.57805
H          H       0.79456   0.60605   0.42195
H          H       0.20544   0.60605   0.57805
H          H       0.53356   0.88611   0.51780
H          H       0.46644   0.88611   0.48220
H          H       0.03356   0.38611   0.51780
H          H       0.96644   0.38611   0.48220
H          H       0.97200   0.40451   0.02411
H          H       0.02800   0.40451   0.97589
H          H       0.47200   0.90451   0.02411
H          H       0.52800   0.90451   0.97589
H          H       0.02563   0.63870   0.02794
H          H       0.97437   0.63870   0.97206
H          H       0.52563   0.13870   0.02794
H          H       0.47437   0.13870   0.97206
H          H       0.98269   0.62160   0.53255
H          H       0.01731   0.62160   0.46745
H          H       0.48269   0.12160   0.53255
H          H       0.51731   0.12160   0.46745
C          C       0.00000   0.58984   0.50000
C          C       0.50000   0.08984   0.50000
C          C       0.00000   0.41803   0.50000
C          C       0.50000   0.91803   0.50000
C          C       0.50000   0.93640   0.00000
C          C       0.00000   0.43640   0.00000
C          C       0.00000   0.60685   0.00000
C          C       0.50000   0.10685   0.00000
