data_crystal

_cell_length_a    29.90710
_cell_length_b    29.90710
_cell_length_c    7.14160
_cell_angle_alpha 90.00000
_cell_angle_beta  90.00000
_cell_angle_gamma 120.00000

_space_group_name_Hall 'P 1'
_space_group_name_H-M_alt  'P 1'

loop_
_symmetry_equiv_pos_as_xyz
'x,y,z'

loop_
_atom_site_label
_atom_site_type_symbol
_atom_site_fract_x
_atom_site_fract_y
_atom_site_fract_z
H          H       0.58930   0.58250   0.25000
H          H       0.41750   0.00680   0.25000
H          H       0.99320   0.41070   0.25000
H          H       0.41400   0.42070   0.25000
H          H       0.57930   0.99330   0.25000
H          H       0.00670   0.58600   0.25000
S          S       0.50430   0.39770   0.25000
S          S       0.60230   0.10660   0.25000
S          S       0.89340   0.49570   0.25000
S          S       0.49880   0.60540   0.25000
S          S       0.39460   0.89340   0.25000
S          S       0.10660   0.50120   0.25000
O          O       0.29770   0.56250   0.25000
O          O       0.43750   0.73520   0.25000
O          O       0.26480   0.70230   0.25000
O          O       0.70440   0.43790   0.25000
O          O       0.56210   0.26650   0.25000
O          O       0.73350   0.29560   0.25000
N          N       0.39540   0.58160   0.25000
N          N       0.41840   0.81380   0.25000
N          N       0.18620   0.60460   0.25000
N          N       0.60730   0.42090   0.25000
N          N       0.57910   0.18640   0.25000
N          N       0.81360   0.39270   0.25000
N          N       0.41460   0.51370   0.25000
N          N       0.48630   0.90090   0.25000
N          N       0.09910   0.58540   0.25000
H          H       0.35620   0.55470   0.25000
H          H       0.44530   0.80150   0.25000
H          H       0.19850   0.64380   0.25000
N          N       0.58860   0.48930   0.25000
N          N       0.51070   0.09930   0.25000
N          N       0.90070   0.41140   0.25000
H          H       0.64660   0.44740   0.25000
H          H       0.55260   0.19920   0.25000
H          H       0.80080   0.35340   0.25000
C          C       0.31410   0.61000   0.25000
C          C       0.39000   0.70410   0.25000
C          C       0.29590   0.68590   0.25000
C          C       0.37040   0.64760   0.25000
C          C       0.35240   0.72280   0.25000
C          C       0.27720   0.62960   0.25000
C          C       0.40700   0.63180   0.25000
C          C       0.36820   0.77520   0.25000
C          C       0.22480   0.59300   0.25000
C          C       0.45170   0.45540   0.25000
C          C       0.54460   0.99630   0.25000
C          C       0.00370   0.54830   0.25000
C          C       0.49720   0.45330   0.25000
C          C       0.54670   0.04390   0.25000
C          C       0.95610   0.50280   0.25000
C          C       0.54720   0.49850   0.25000
C          C       0.50150   0.04870   0.25000
C          C       0.95130   0.45280   0.25000
H          H       0.55370   0.34150   0.25000
H          H       0.65850   0.21220   0.25000
H          H       0.78780   0.44630   0.25000
C          C       0.55160   0.54770   0.25000
C          C       0.45230   0.00390   0.25000
C          C       0.99610   0.44840   0.25000
C          C       0.50600   0.54990   0.25000
C          C       0.45010   0.95610   0.25000
C          C       0.04390   0.49400   0.25000
C          C       0.45610   0.50460   0.25000
C          C       0.49540   0.95150   0.25000
C          C       0.04850   0.54390   0.25000
H          H       0.44790   0.66130   0.25000
H          H       0.33870   0.78660   0.25000
H          H       0.21340   0.55210   0.25000
C          C       0.57300   0.43960   0.25000
C          C       0.56040   0.13340   0.25000
C          C       0.86660   0.42700   0.25000
C          C       0.43000   0.56340   0.25000
C          C       0.43660   0.86660   0.25000
C          C       0.13340   0.57000   0.25000
C          C       0.59480   0.37050   0.25000
C          C       0.62950   0.22430   0.25000
C          C       0.77570   0.40520   0.25000
C          C       0.63060   0.35360   0.25000
C          C       0.64640   0.27700   0.25000
C          C       0.72300   0.36940   0.25000
C          C       0.68710   0.39030   0.25000
C          C       0.60970   0.29680   0.25000
C          C       0.70320   0.31290   0.25000
H          H       0.58930   0.58250   0.75000
H          H       0.41750   0.00680   0.75000
H          H       0.99320   0.41070   0.75000
H          H       0.41400   0.42070   0.75000
H          H       0.57930   0.99330   0.75000
H          H       0.00670   0.58600   0.75000
S          S       0.50430   0.39770   0.75000
S          S       0.60230   0.10660   0.75000
S          S       0.89340   0.49570   0.75000
S          S       0.49880   0.60540   0.75000
S          S       0.39460   0.89340   0.75000
S          S       0.10660   0.50120   0.75000
O          O       0.29770   0.56250   0.75000
O          O       0.43750   0.73520   0.75000
O          O       0.26480   0.70230   0.75000
O          O       0.70440   0.43790   0.75000
O          O       0.56210   0.26650   0.75000
O          O       0.73350   0.29560   0.75000
N          N       0.39540   0.58160   0.75000
N          N       0.41840   0.81380   0.75000
N          N       0.18620   0.60460   0.75000
N          N       0.60730   0.42090   0.75000
N          N       0.57910   0.18640   0.75000
N          N       0.81360   0.39270   0.75000
N          N       0.41460   0.51370   0.75000
N          N       0.48630   0.90090   0.75000
N          N       0.09910   0.58540   0.75000
H          H       0.35620   0.55470   0.75000
H          H       0.44530   0.80150   0.75000
H          H       0.19850   0.64380   0.75000
N          N       0.58860   0.48930   0.75000
N          N       0.51070   0.09930   0.75000
N          N       0.90070   0.41140   0.75000
H          H       0.64660   0.44740   0.75000
H          H       0.55260   0.19920   0.75000
H          H       0.80080   0.35340   0.75000
C          C       0.31410   0.61000   0.75000
C          C       0.39000   0.70410   0.75000
C          C       0.29590   0.68590   0.75000
C          C       0.37040   0.64760   0.75000
C          C       0.35240   0.72280   0.75000
C          C       0.27720   0.62960   0.75000
C          C       0.40700   0.63180   0.75000
C          C       0.36820   0.77520   0.75000
C          C       0.22480   0.59300   0.75000
C          C       0.45170   0.45540   0.75000
C          C       0.54460   0.99630   0.75000
C          C       0.00370   0.54830   0.75000
C          C       0.49720   0.45330   0.75000
C          C       0.54670   0.04390   0.75000
C          C       0.95610   0.50280   0.75000
C          C       0.54720   0.49850   0.75000
C          C       0.50150   0.04870   0.75000
C          C       0.95130   0.45280   0.75000
H          H       0.55370   0.34150   0.75000
H          H       0.65850   0.21220   0.75000
H          H       0.78780   0.44630   0.75000
C          C       0.55160   0.54770   0.75000
C          C       0.45230   0.00390   0.75000
C          C       0.99610   0.44840   0.75000
C          C       0.50600   0.54990   0.75000
C          C       0.45010   0.95610   0.75000
C          C       0.04390   0.49400   0.75000
C          C       0.45610   0.50460   0.75000
C          C       0.49540   0.95150   0.75000
C          C       0.04850   0.54390   0.75000
H          H       0.44790   0.66130   0.75000
H          H       0.33870   0.78660   0.75000
H          H       0.21340   0.55210   0.75000
C          C       0.57300   0.43960   0.75000
C          C       0.56040   0.13340   0.75000
C          C       0.86660   0.42700   0.75000
C          C       0.43000   0.56340   0.75000
C          C       0.43660   0.86660   0.75000
C          C       0.13340   0.57000   0.75000
C          C       0.59480   0.37050   0.75000
C          C       0.62950   0.22430   0.75000
C          C       0.77570   0.40520   0.75000
C          C       0.63060   0.35360   0.75000
C          C       0.64640   0.27700   0.75000
C          C       0.72300   0.36940   0.75000
C          C       0.68710   0.39030   0.75000
C          C       0.60970   0.29680   0.75000
C          C       0.70320   0.31290   0.75000
