data_crystal

_cell_length_a    48.71700
_cell_length_b    44.93470
_cell_length_c    7.64380
_cell_angle_alpha 90.00000
_cell_angle_beta  85.19890
_cell_angle_gamma 90.00000

_space_group_name_Hall 'P 1'
_space_group_name_H-M_alt  'P 1'

loop_
_symmetry_equiv_pos_as_xyz
'x,y,z'

loop_
_atom_site_label
_atom_site_type_symbol
_atom_site_fract_x
_atom_site_fract_y
_atom_site_fract_z
C          C       0.02810   0.97248   0.29679
C          C       0.97190   0.97248   0.20322
C          C       0.97190   0.02752   0.20322
C          C       0.02810   0.02752   0.29679
C          C       0.01349   0.94561   0.27020
C          C       0.98651   0.94561   0.22980
C          C       0.98651   0.05439   0.22980
C          C       0.01349   0.05439   0.27020
C          C       0.05597   0.97258   0.34123
C          C       0.94403   0.97258   0.15877
C          C       0.94403   0.02742   0.15877
C          C       0.05597   0.02742   0.34123
C          C       0.07375   0.94544   0.34466
C          C       0.92625   0.94544   0.15534
C          C       0.92625   0.05456   0.15534
C          C       0.07375   0.05456   0.34466
C          C       0.10034   0.94608   0.25546
C          C       0.89966   0.94608   0.24454
C          C       0.89966   0.05392   0.24454
C          C       0.10034   0.05392   0.25546
C          C       0.11782   0.92152   0.25740
C          C       0.88218   0.92152   0.24260
C          C       0.88218   0.07848   0.24260
C          C       0.11782   0.07848   0.25740
C          C       0.10920   0.89514   0.34522
C          C       0.89080   0.89514   0.15478
C          C       0.89080   0.10486   0.15478
C          C       0.10920   0.10486   0.34522
C          C       0.08279   0.89450   0.43487
C          C       0.91721   0.89450   0.06513
C          C       0.91721   0.10550   0.06513
C          C       0.08279   0.10550   0.43487
C          C       0.06564   0.91944   0.43715
C          C       0.93436   0.91944   0.06285
C          C       0.93436   0.08056   0.06285
C          C       0.06564   0.08056   0.43715
C          C       0.25589   0.77638   0.17388
C          C       0.74411   0.77638   0.32612
C          C       0.74411   0.22362   0.32612
C          C       0.25589   0.22362   0.17388
C          C       0.27516   0.75252   0.16383
C          C       0.72484   0.75252   0.33618
C          C       0.72484   0.24748   0.33618
C          C       0.27516   0.24748   0.16383
C          C       0.26847   0.72442   0.22973
C          C       0.73153   0.72442   0.27027
C          C       0.73153   0.27558   0.27027
C          C       0.26847   0.27558   0.22973
C          C       0.24097   0.71985   0.31060
C          C       0.75903   0.71985   0.18940
C          C       0.75903   0.28015   0.18940
C          C       0.24097   0.28015   0.31060
C          C       0.22139   0.74408   0.32046
C          C       0.77861   0.74408   0.17954
C          C       0.77861   0.25592   0.17954
C          C       0.22139   0.25592   0.32046
C          C       0.22924   0.77296   0.25017
C          C       0.77076   0.77296   0.24983
C          C       0.77076   0.22704   0.24983
C          C       0.22924   0.22704   0.25017
C          C       0.20917   0.79759   0.26267
C          C       0.79083   0.79759   0.23733
C          C       0.79083   0.20241   0.23733
C          C       0.20917   0.20241   0.26267
C          C       0.28838   0.69965   0.22085
C          C       0.71162   0.69965   0.27915
C          C       0.71162   0.30035   0.27915
C          C       0.28838   0.30035   0.22085
C          C       0.18159   0.79319   0.22668
C          C       0.81841   0.79319   0.27332
C          C       0.81841   0.20681   0.27332
C          C       0.18159   0.20681   0.22668
C          C       0.16287   0.81679   0.23849
C          C       0.83713   0.81679   0.26151
C          C       0.83713   0.18321   0.26151
C          C       0.16287   0.18321   0.23849
C          C       0.17122   0.84552   0.28701
C          C       0.82878   0.84552   0.21300
C          C       0.82878   0.15448   0.21300
C          C       0.17122   0.15448   0.28701
C          C       0.19905   0.84997   0.31838
C          C       0.80095   0.84997   0.18163
C          C       0.80095   0.15003   0.18163
C          C       0.19905   0.15003   0.31838
C          C       0.21763   0.82629   0.30830
C          C       0.78237   0.82629   0.19171
C          C       0.78237   0.17371   0.19171
C          C       0.21763   0.17371   0.30830
C          C       0.31571   0.70485   0.25778
C          C       0.68429   0.70485   0.24222
C          C       0.68429   0.29515   0.24222
C          C       0.31571   0.29515   0.25778
C          C       0.33507   0.68186   0.24817
C          C       0.66493   0.68186   0.25183
C          C       0.66493   0.31814   0.25183
C          C       0.33507   0.31814   0.24817
C          C       0.32749   0.65281   0.20074
C          C       0.67251   0.65281   0.29926
C          C       0.67251   0.34719   0.29926
C          C       0.32749   0.34719   0.20074
C          C       0.29988   0.64751   0.16713
C          C       0.70012   0.64751   0.33287
C          C       0.70012   0.35249   0.33287
C          C       0.29988   0.35249   0.16713
C          C       0.28065   0.67060   0.17501
C          C       0.71935   0.67060   0.32499
C          C       0.71935   0.32940   0.32499
C          C       0.28065   0.32940   0.17501
N          N       0.15335   0.87037   0.29507
N          N       0.84665   0.87037   0.20493
N          N       0.84665   0.12963   0.20493
N          N       0.15335   0.12963   0.29507
C          C       0.12719   0.86870   0.34414
C          C       0.87281   0.86870   0.15587
C          C       0.87281   0.13130   0.15587
C          C       0.12719   0.13130   0.34414
C          C       0.44412   0.52742   0.15735
C          C       0.55588   0.52742   0.34264
C          C       0.55588   0.47258   0.34264
C          C       0.44412   0.47258   0.15735
C          C       0.47195   0.52752   0.20251
C          C       0.52805   0.52752   0.29749
C          C       0.52805   0.47248   0.29749
C          C       0.47195   0.47248   0.20251
C          C       0.48653   0.55440   0.22946
C          C       0.51347   0.55440   0.27055
C          C       0.51347   0.44560   0.27055
C          C       0.48653   0.44560   0.22946
C          C       0.42629   0.44548   0.15411
C          C       0.57371   0.44548   0.34589
C          C       0.57371   0.55452   0.34589
C          C       0.42629   0.55452   0.15411
C          C       0.43430   0.41943   0.06186
C          C       0.56570   0.41943   0.43814
C          C       0.56570   0.58057   0.43814
C          C       0.43430   0.58057   0.06186
C          C       0.41697   0.39463   0.06327
C          C       0.58303   0.39463   0.43673
C          C       0.58303   0.60537   0.43673
C          C       0.41697   0.60537   0.06327
C          C       0.39048   0.39550   0.15177
C          C       0.60952   0.39550   0.34823
C          C       0.60952   0.60450   0.34823
C          C       0.39048   0.60450   0.15177
C          C       0.38202   0.42188   0.24006
C          C       0.61798   0.42188   0.25994
C          C       0.61798   0.57812   0.25994
C          C       0.38202   0.57812   0.24006
C          C       0.39967   0.44628   0.24293
C          C       0.60033   0.44628   0.25707
C          C       0.60033   0.55372   0.25707
C          C       0.39967   0.55372   0.24293
C          C       0.37215   0.36936   0.15039
C          C       0.62785   0.36936   0.34961
C          C       0.62785   0.63064   0.34961
C          C       0.37215   0.63064   0.15039
N          N       0.65410   0.62843   0.30440
N          N       0.34590   0.62843   0.19560
N          N       0.34590   0.37157   0.19560
N          N       0.65410   0.37157   0.30440
N          N       0.80325   0.26225   0.09890
N          N       0.19675   0.26225   0.40110
N          N       0.19675   0.73775   0.40110
N          N       0.80325   0.73775   0.09890
S          S       0.80294   0.30031   0.03111
S          S       0.19706   0.30031   0.46890
S          S       0.19706   0.69969   0.46890
S          S       0.80294   0.69969   0.03111
N          N       0.76812   0.30567   0.11632
N          N       0.23188   0.30567   0.38369
N          N       0.23188   0.69433   0.38369
N          N       0.76812   0.69433   0.11632
H          H       0.10739   0.96570   0.18081
H          H       0.89261   0.96570   0.31919
H          H       0.89261   0.03430   0.31919
H          H       0.10739   0.03430   0.18081
H          H       0.13814   0.92267   0.18661
H          H       0.86186   0.92267   0.31339
H          H       0.86186   0.07733   0.31339
H          H       0.13814   0.07733   0.18661
H          H       0.07571   0.87461   0.00660
H          H       0.92429   0.87461   0.49340
H          H       0.92429   0.12539   0.49340
H          H       0.07571   0.12539   0.00660
H          H       0.04596   0.91847   0.01470
H          H       0.95404   0.91847   0.48530
H          H       0.95404   0.08153   0.48530
H          H       0.04596   0.08153   0.01470
H          H       0.26232   0.79768   0.11633
H          H       0.73768   0.79768   0.38367
H          H       0.73768   0.20232   0.38367
H          H       0.26232   0.20232   0.11633
H          H       0.29555   0.75656   0.09888
H          H       0.70445   0.75656   0.40113
H          H       0.70445   0.24344   0.40113
H          H       0.29555   0.24344   0.09888
H          H       0.17464   0.77147   0.18518
H          H       0.82536   0.77147   0.31482
H          H       0.82536   0.22853   0.31482
H          H       0.17464   0.22853   0.18518
H          H       0.14185   0.81292   0.20602
H          H       0.85815   0.81292   0.29398
H          H       0.85815   0.18708   0.29398
H          H       0.14185   0.18708   0.20602
H          H       0.20606   0.87198   0.35426
H          H       0.79394   0.87198   0.14575
H          H       0.79394   0.12802   0.14575
H          H       0.20606   0.12802   0.35426
H          H       0.23882   0.83015   0.33850
H          H       0.76118   0.83015   0.16150
H          H       0.76118   0.16985   0.16150
H          H       0.23882   0.16985   0.33850
H          H       0.32200   0.72697   0.29776
H          H       0.67800   0.72697   0.20224
H          H       0.67800   0.27303   0.20224
H          H       0.32200   0.27303   0.29776
H          H       0.35591   0.68648   0.28130
H          H       0.64409   0.68648   0.21871
H          H       0.64409   0.31352   0.21871
H          H       0.35591   0.31352   0.28130
H          H       0.29354   0.62524   0.13104
H          H       0.70646   0.62524   0.36897
H          H       0.70646   0.37476   0.36897
H          H       0.29354   0.37476   0.13104
H          H       0.25976   0.66598   0.14225
H          H       0.74024   0.66598   0.35774
H          H       0.74024   0.33402   0.35774
H          H       0.25976   0.33402   0.14225
H          H       0.11755   0.84741   0.39075
H          H       0.88245   0.84741   0.10925
H          H       0.88245   0.15259   0.10925
H          H       0.11755   0.15259   0.39075
H          H       0.42394   0.37473   0.49130
H          H       0.57606   0.37473   0.00870
H          H       0.57606   0.62527   0.00870
H          H       0.42394   0.62527   0.49130
H          H       0.36166   0.42319   0.31014
H          H       0.63834   0.42319   0.18986
H          H       0.63834   0.57681   0.18986
H          H       0.36166   0.57681   0.31014
H          H       0.39270   0.46593   0.31761
H          H       0.60730   0.46593   0.18239
H          H       0.60730   0.53407   0.18239
H          H       0.39270   0.53407   0.31761
H          H       0.38157   0.34790   0.10471
H          H       0.61843   0.34790   0.39530
H          H       0.61843   0.65210   0.39530
H          H       0.38157   0.65210   0.10471
H          H       0.52314   0.57580   0.28258
H          H       0.47686   0.57580   0.21742
H          H       0.47686   0.42420   0.21742
H          H       0.52314   0.42420   0.28258
H          H       0.02316   0.92420   0.28187
H          H       0.97684   0.92420   0.21813
H          H       0.97684   0.07580   0.21813
H          H       0.02316   0.07580   0.28187
H          H       0.45402   0.41832   0.48480
H          H       0.54598   0.41832   0.01520
H          H       0.54598   0.58168   0.01520
H          H       0.45402   0.58168   0.48480
C          C       0.01396   0.00000   0.27492
C          C       0.98604   0.00000   0.22509
C          C       0.06859   0.00000   0.36884
C          C       0.93141   0.00000   0.13116
H          H       0.08949   0.00000   0.40945
H          H       0.91051   0.00000   0.09055
C          C       0.48606   0.50000   0.22470
C          C       0.51394   0.50000   0.27530
C          C       0.43154   0.50000   0.12912
C          C       0.56846   0.50000   0.37089
H          H       0.41068   0.50000   0.08784
H          H       0.58932   0.50000   0.41216
C          C       0.02810   0.97248   0.79679
C          C       0.97190   0.97248   0.70322
C          C       0.97190   0.02752   0.70322
C          C       0.02810   0.02752   0.79679
C          C       0.01349   0.94561   0.77020
C          C       0.98651   0.94561   0.72980
C          C       0.98651   0.05439   0.72980
C          C       0.01349   0.05439   0.77020
C          C       0.05597   0.97258   0.84123
C          C       0.94403   0.97258   0.65877
C          C       0.94403   0.02742   0.65877
C          C       0.05597   0.02742   0.84123
C          C       0.07375   0.94544   0.84466
C          C       0.92625   0.94544   0.65534
C          C       0.92625   0.05456   0.65534
C          C       0.07375   0.05456   0.84466
C          C       0.10034   0.94608   0.75546
C          C       0.89966   0.94608   0.74454
C          C       0.89966   0.05392   0.74454
C          C       0.10034   0.05392   0.75546
C          C       0.11782   0.92152   0.75740
C          C       0.88218   0.92152   0.74260
C          C       0.88218   0.07848   0.74260
C          C       0.11782   0.07848   0.75740
C          C       0.10920   0.89514   0.84522
C          C       0.89080   0.89514   0.65478
C          C       0.89080   0.10486   0.65478
C          C       0.10920   0.10486   0.84522
C          C       0.08279   0.89450   0.93486
C          C       0.91721   0.89450   0.56514
C          C       0.91721   0.10550   0.56514
C          C       0.08279   0.10550   0.93486
C          C       0.06564   0.91944   0.93715
C          C       0.93436   0.91944   0.56285
C          C       0.93436   0.08056   0.56285
C          C       0.06564   0.08056   0.93715
C          C       0.25589   0.77638   0.67388
C          C       0.74411   0.77638   0.82612
C          C       0.74411   0.22362   0.82612
C          C       0.25589   0.22362   0.67388
C          C       0.27516   0.75252   0.66382
C          C       0.72484   0.75252   0.83618
C          C       0.72484   0.24748   0.83618
C          C       0.27516   0.24748   0.66382
C          C       0.26847   0.72442   0.72973
C          C       0.73153   0.72442   0.77027
C          C       0.73153   0.27558   0.77027
C          C       0.26847   0.27558   0.72973
C          C       0.24097   0.71985   0.81060
C          C       0.75903   0.71985   0.68940
C          C       0.75903   0.28015   0.68940
C          C       0.24097   0.28015   0.81060
C          C       0.22139   0.74408   0.82046
C          C       0.77861   0.74408   0.67954
C          C       0.77861   0.25592   0.67954
C          C       0.22139   0.25592   0.82046
C          C       0.22924   0.77296   0.75017
C          C       0.77076   0.77296   0.74984
C          C       0.77076   0.22704   0.74984
C          C       0.22924   0.22704   0.75017
C          C       0.20917   0.79759   0.76267
C          C       0.79083   0.79759   0.73733
C          C       0.79083   0.20241   0.73733
C          C       0.20917   0.20241   0.76267
C          C       0.28838   0.69965   0.72085
C          C       0.71162   0.69965   0.77915
C          C       0.71162   0.30035   0.77915
C          C       0.28838   0.30035   0.72085
C          C       0.18159   0.79319   0.72668
C          C       0.81841   0.79319   0.77332
C          C       0.81841   0.20681   0.77332
C          C       0.18159   0.20681   0.72668
C          C       0.16287   0.81679   0.73849
C          C       0.83713   0.81679   0.76151
C          C       0.83713   0.18321   0.76151
C          C       0.16287   0.18321   0.73849
C          C       0.17122   0.84552   0.78701
C          C       0.82878   0.84552   0.71300
C          C       0.82878   0.15448   0.71300
C          C       0.17122   0.15448   0.78701
C          C       0.19905   0.84997   0.81838
C          C       0.80095   0.84997   0.68163
C          C       0.80095   0.15003   0.68163
C          C       0.19905   0.15003   0.81838
C          C       0.21763   0.82629   0.80829
C          C       0.78237   0.82629   0.69171
C          C       0.78237   0.17371   0.69171
C          C       0.21763   0.17371   0.80829
C          C       0.31571   0.70485   0.75778
C          C       0.68429   0.70485   0.74222
C          C       0.68429   0.29515   0.74222
C          C       0.31571   0.29515   0.75778
C          C       0.33507   0.68186   0.74817
C          C       0.66493   0.68186   0.75183
C          C       0.66493   0.31814   0.75183
C          C       0.33507   0.31814   0.74817
C          C       0.32749   0.65281   0.70074
C          C       0.67251   0.65281   0.79926
C          C       0.67251   0.34719   0.79926
C          C       0.32749   0.34719   0.70074
C          C       0.29988   0.64751   0.66713
C          C       0.70012   0.64751   0.83287
C          C       0.70012   0.35249   0.83287
C          C       0.29988   0.35249   0.66713
C          C       0.28065   0.67060   0.67501
C          C       0.71935   0.67060   0.82499
C          C       0.71935   0.32940   0.82499
C          C       0.28065   0.32940   0.67501
N          N       0.15335   0.87037   0.79508
N          N       0.84665   0.87037   0.70493
N          N       0.84665   0.12963   0.70493
N          N       0.15335   0.12963   0.79508
C          C       0.12719   0.86870   0.84414
C          C       0.87281   0.86870   0.65587
C          C       0.87281   0.13130   0.65587
C          C       0.12719   0.13130   0.84414
C          C       0.44412   0.52742   0.65736
C          C       0.55588   0.52742   0.84264
C          C       0.55588   0.47258   0.84264
C          C       0.44412   0.47258   0.65736
C          C       0.47195   0.52752   0.70251
C          C       0.52805   0.52752   0.79749
C          C       0.52805   0.47248   0.79749
C          C       0.47195   0.47248   0.70251
C          C       0.48653   0.55440   0.72945
C          C       0.51347   0.55440   0.77055
C          C       0.51347   0.44560   0.77055
C          C       0.48653   0.44560   0.72945
C          C       0.42629   0.44548   0.65411
C          C       0.57371   0.44548   0.84589
C          C       0.57371   0.55452   0.84589
C          C       0.42629   0.55452   0.65411
C          C       0.43430   0.41943   0.56186
C          C       0.56570   0.41943   0.93814
C          C       0.56570   0.58057   0.93814
C          C       0.43430   0.58057   0.56186
C          C       0.41697   0.39463   0.56328
C          C       0.58303   0.39463   0.93673
C          C       0.58303   0.60537   0.93673
C          C       0.41697   0.60537   0.56328
C          C       0.39048   0.39550   0.65177
C          C       0.60952   0.39550   0.84823
C          C       0.60952   0.60450   0.84823
C          C       0.39048   0.60450   0.65177
C          C       0.38202   0.42188   0.74006
C          C       0.61798   0.42188   0.75994
C          C       0.61798   0.57812   0.75994
C          C       0.38202   0.57812   0.74006
C          C       0.39967   0.44628   0.74292
C          C       0.60033   0.44628   0.75708
C          C       0.60033   0.55372   0.75708
C          C       0.39967   0.55372   0.74292
C          C       0.37215   0.36936   0.65039
C          C       0.62785   0.36936   0.84961
C          C       0.62785   0.63064   0.84961
C          C       0.37215   0.63064   0.65039
N          N       0.65410   0.62843   0.80440
N          N       0.34590   0.62843   0.69560
N          N       0.34590   0.37157   0.69560
N          N       0.65410   0.37157   0.80440
N          N       0.80325   0.26225   0.59890
N          N       0.19675   0.26225   0.90110
N          N       0.19675   0.73775   0.90110
N          N       0.80325   0.73775   0.59890
S          S       0.80294   0.30031   0.53111
S          S       0.19706   0.30031   0.96890
S          S       0.19706   0.69969   0.96890
S          S       0.80294   0.69969   0.53111
N          N       0.76812   0.30567   0.61632
N          N       0.23188   0.30567   0.88369
N          N       0.23188   0.69433   0.88369
N          N       0.76812   0.69433   0.61632
H          H       0.10739   0.96570   0.68081
H          H       0.89261   0.96570   0.81919
H          H       0.89261   0.03430   0.81919
H          H       0.10739   0.03430   0.68081
H          H       0.13814   0.92267   0.68661
H          H       0.86186   0.92267   0.81339
H          H       0.86186   0.07733   0.81339
H          H       0.13814   0.07733   0.68661
H          H       0.07571   0.87461   0.50660
H          H       0.92429   0.87461   0.99340
H          H       0.92429   0.12539   0.99340
H          H       0.07571   0.12539   0.50660
H          H       0.04596   0.91847   0.51470
H          H       0.95404   0.91847   0.98530
H          H       0.95404   0.08153   0.98530
H          H       0.04596   0.08153   0.51470
H          H       0.26232   0.79768   0.61633
H          H       0.73768   0.79768   0.88367
H          H       0.73768   0.20232   0.88367
H          H       0.26232   0.20232   0.61633
H          H       0.29555   0.75656   0.59888
H          H       0.70445   0.75656   0.90113
H          H       0.70445   0.24344   0.90113
H          H       0.29555   0.24344   0.59888
H          H       0.17464   0.77147   0.68519
H          H       0.82536   0.77147   0.81482
H          H       0.82536   0.22853   0.81482
H          H       0.17464   0.22853   0.68519
H          H       0.14185   0.81292   0.70601
H          H       0.85815   0.81292   0.79399
H          H       0.85815   0.18708   0.79399
H          H       0.14185   0.18708   0.70601
H          H       0.20606   0.87198   0.85426
H          H       0.79394   0.87198   0.64575
H          H       0.79394   0.12802   0.64575
H          H       0.20606   0.12802   0.85426
H          H       0.23882   0.83015   0.83850
H          H       0.76118   0.83015   0.66150
H          H       0.76118   0.16985   0.66150
H          H       0.23882   0.16985   0.83850
H          H       0.32200   0.72697   0.79776
H          H       0.67800   0.72697   0.70224
H          H       0.67800   0.27303   0.70224
H          H       0.32200   0.27303   0.79776
H          H       0.35591   0.68648   0.78130
H          H       0.64409   0.68648   0.71870
H          H       0.64409   0.31352   0.71870
H          H       0.35591   0.31352   0.78130
H          H       0.29354   0.62524   0.63104
H          H       0.70646   0.62524   0.86897
H          H       0.70646   0.37476   0.86897
H          H       0.29354   0.37476   0.63104
H          H       0.25976   0.66598   0.64226
H          H       0.74024   0.66598   0.85774
H          H       0.74024   0.33402   0.85774
H          H       0.25976   0.33402   0.64226
H          H       0.11755   0.84741   0.89075
H          H       0.88245   0.84741   0.60925
H          H       0.88245   0.15259   0.60925
H          H       0.11755   0.15259   0.89075
H          H       0.42394   0.37473   0.99130
H          H       0.57606   0.37473   0.50870
H          H       0.57606   0.62527   0.50870
H          H       0.42394   0.62527   0.99130
H          H       0.36166   0.42319   0.81014
H          H       0.63834   0.42319   0.68986
H          H       0.63834   0.57681   0.68986
H          H       0.36166   0.57681   0.81014
H          H       0.39270   0.46593   0.81761
H          H       0.60730   0.46593   0.68239
H          H       0.60730   0.53407   0.68239
H          H       0.39270   0.53407   0.81761
H          H       0.38157   0.34790   0.60471
H          H       0.61843   0.34790   0.89530
H          H       0.61843   0.65210   0.89530
H          H       0.38157   0.65210   0.60471
H          H       0.52314   0.57580   0.78258
H          H       0.47686   0.57580   0.71742
H          H       0.47686   0.42420   0.71742
H          H       0.52314   0.42420   0.78258
H          H       0.02316   0.92420   0.78187
H          H       0.97684   0.92420   0.71813
H          H       0.97684   0.07580   0.71813
H          H       0.02316   0.07580   0.78187
H          H       0.45402   0.41832   0.98480
H          H       0.54598   0.41832   0.51520
H          H       0.54598   0.58168   0.51520
H          H       0.45402   0.58168   0.98480
C          C       0.01396   0.00000   0.77492
C          C       0.98604   0.00000   0.72508
C          C       0.06859   0.00000   0.86884
C          C       0.93141   0.00000   0.63116
H          H       0.08949   0.00000   0.90945
H          H       0.91051   0.00000   0.59056
C          C       0.48606   0.50000   0.72470
C          C       0.51394   0.50000   0.77530
C          C       0.43154   0.50000   0.62912
C          C       0.56846   0.50000   0.87089
H          H       0.41068   0.50000   0.58784
H          H       0.58932   0.50000   0.91216
