data_crystal

_cell_length_a    48.62280
_cell_length_b    45.08060
_cell_length_c    7.73020
_cell_angle_alpha 90.00000
_cell_angle_beta  85.03920
_cell_angle_gamma 90.00000

_space_group_name_Hall 'P 1'
_space_group_name_H-M_alt  'P 1'

loop_
_symmetry_equiv_pos_as_xyz
'x,y,z'

loop_
_atom_site_label
_atom_site_type_symbol
_atom_site_fract_x
_atom_site_fract_y
_atom_site_fract_z
C          C       0.02815   0.97262   0.29666
C          C       0.97185   0.97262   0.20334
C          C       0.97185   0.02738   0.20334
C          C       0.02815   0.02738   0.29666
C          C       0.01332   0.94569   0.26979
C          C       0.98668   0.94569   0.23021
C          C       0.98668   0.05431   0.23021
C          C       0.01332   0.05431   0.26979
C          C       0.05600   0.97265   0.34053
C          C       0.94400   0.97265   0.15947
C          C       0.94400   0.02735   0.15947
C          C       0.05600   0.02735   0.34053
C          C       0.07378   0.94562   0.34413
C          C       0.92622   0.94562   0.15587
C          C       0.92622   0.05438   0.15587
C          C       0.07378   0.05438   0.34413
C          C       0.10048   0.94608   0.25480
C          C       0.89952   0.94608   0.24520
C          C       0.89952   0.05392   0.24520
C          C       0.10048   0.05392   0.25480
C          C       0.11798   0.92179   0.25700
C          C       0.88202   0.92179   0.24300
C          C       0.88202   0.07821   0.24300
C          C       0.11798   0.07821   0.25700
C          C       0.10943   0.89550   0.34620
C          C       0.89057   0.89550   0.15380
C          C       0.89057   0.10450   0.15380
C          C       0.10943   0.10450   0.34620
C          C       0.08289   0.89500   0.43547
C          C       0.91711   0.89500   0.06453
C          C       0.91711   0.10500   0.06453
C          C       0.08289   0.10500   0.43547
C          C       0.06575   0.91968   0.43718
C          C       0.93425   0.91968   0.06283
C          C       0.93425   0.08032   0.06283
C          C       0.06575   0.08032   0.43718
C          C       0.25770   0.77844   0.18240
C          C       0.74230   0.77844   0.31761
C          C       0.74230   0.22156   0.31761
C          C       0.25770   0.22156   0.18240
C          C       0.27723   0.75422   0.17191
C          C       0.72277   0.75422   0.32810
C          C       0.72277   0.24578   0.32810
C          C       0.27723   0.24578   0.17191
C          C       0.27054   0.72648   0.23852
C          C       0.72946   0.72648   0.26149
C          C       0.72946   0.27352   0.26149
C          C       0.27054   0.27352   0.23852
C          C       0.24301   0.72215   0.32118
C          C       0.75699   0.72215   0.17882
C          C       0.75699   0.27785   0.17882
C          C       0.24301   0.27785   0.32118
C          C       0.22330   0.74658   0.33137
C          C       0.77670   0.74658   0.16863
C          C       0.77670   0.25342   0.16863
C          C       0.22330   0.25342   0.33137
C          C       0.23119   0.77530   0.25979
C          C       0.76881   0.77530   0.24022
C          C       0.76881   0.22470   0.24022
C          C       0.23119   0.22470   0.25979
C          C       0.21076   0.79954   0.27227
C          C       0.78924   0.79954   0.22773
C          C       0.78924   0.20046   0.22773
C          C       0.21076   0.20046   0.27227
C          C       0.29000   0.70130   0.22884
C          C       0.71000   0.70130   0.27117
C          C       0.71000   0.29870   0.27117
C          C       0.29000   0.29870   0.22884
C          C       0.18332   0.79493   0.23266
C          C       0.81668   0.79493   0.26735
C          C       0.81668   0.20507   0.26735
C          C       0.18332   0.20507   0.23266
C          C       0.16435   0.81801   0.24380
C          C       0.83565   0.81801   0.25620
C          C       0.83565   0.18199   0.25620
C          C       0.16435   0.18199   0.24380
C          C       0.17201   0.84679   0.29492
C          C       0.82799   0.84679   0.20508
C          C       0.82799   0.15321   0.20508
C          C       0.17201   0.15321   0.29492
C          C       0.19982   0.85139   0.33188
C          C       0.80018   0.85139   0.16813
C          C       0.80018   0.14861   0.16813
C          C       0.19982   0.14861   0.33188
C          C       0.21861   0.82817   0.32238
C          C       0.78139   0.82817   0.17762
C          C       0.78139   0.17183   0.17762
C          C       0.21861   0.17183   0.32238
C          C       0.31742   0.70557   0.26947
C          C       0.68258   0.70557   0.23053
C          C       0.68258   0.29443   0.23053
C          C       0.31742   0.29443   0.26947
C          C       0.33618   0.68230   0.25883
C          C       0.66382   0.68230   0.24118
C          C       0.66382   0.31770   0.24118
C          C       0.33618   0.31770   0.25883
C          C       0.32830   0.65361   0.20738
C          C       0.67170   0.65361   0.29262
C          C       0.67170   0.34639   0.29262
C          C       0.32830   0.34639   0.20738
C          C       0.30045   0.64926   0.17072
C          C       0.69955   0.64926   0.32929
C          C       0.69955   0.35074   0.32929
C          C       0.30045   0.35074   0.17072
C          C       0.28186   0.67268   0.17974
C          C       0.71814   0.67268   0.32026
C          C       0.71814   0.32732   0.32026
C          C       0.28186   0.32732   0.17974
N          N       0.15388   0.87122   0.30138
N          N       0.84612   0.87122   0.19863
N          N       0.84612   0.12878   0.19863
N          N       0.15388   0.12878   0.30138
C          C       0.12761   0.86939   0.34644
C          C       0.87239   0.86939   0.15356
C          C       0.87239   0.13061   0.15356
C          C       0.12761   0.13061   0.34644
C          C       0.44397   0.52735   0.15986
C          C       0.55603   0.52735   0.34015
C          C       0.55603   0.47265   0.34015
C          C       0.44397   0.47265   0.15986
C          C       0.47184   0.52738   0.20354
C          C       0.52816   0.52738   0.29646
C          C       0.52816   0.47262   0.29646
C          C       0.47184   0.47262   0.20354
C          C       0.48668   0.55431   0.23031
C          C       0.51332   0.55431   0.26970
C          C       0.51332   0.44569   0.26970
C          C       0.48668   0.44569   0.23031
C          C       0.42621   0.44561   0.15617
C          C       0.57379   0.44561   0.34383
C          C       0.57379   0.55439   0.34383
C          C       0.42621   0.55439   0.15617
C          C       0.43427   0.41968   0.06304
C          C       0.56573   0.41968   0.43696
C          C       0.56573   0.58032   0.43696
C          C       0.43427   0.58032   0.06304
C          C       0.41717   0.39497   0.06487
C          C       0.58283   0.39497   0.43514
C          C       0.58283   0.60503   0.43514
C          C       0.41717   0.60503   0.06487
C          C       0.39065   0.39542   0.15437
C          C       0.60935   0.39542   0.34564
C          C       0.60935   0.60458   0.34564
C          C       0.39065   0.60458   0.15437
C          C       0.38206   0.42170   0.24348
C          C       0.61794   0.42170   0.25652
C          C       0.61794   0.57830   0.25652
C          C       0.38206   0.57830   0.24348
C          C       0.39951   0.44602   0.24555
C          C       0.60049   0.44602   0.25445
C          C       0.60049   0.55398   0.25445
C          C       0.39951   0.55398   0.24555
C          C       0.37254   0.36924   0.15454
C          C       0.62746   0.36924   0.34547
C          C       0.62746   0.63076   0.34547
C          C       0.37254   0.63076   0.15454
N          N       0.65372   0.62905   0.29971
N          N       0.34628   0.62905   0.20029
N          N       0.34628   0.37095   0.20029
N          N       0.65372   0.37095   0.29971
N          N       0.80121   0.25985   0.08698
N          N       0.19879   0.25985   0.41303
N          N       0.19879   0.74015   0.41303
N          N       0.80121   0.74015   0.08698
S          S       0.80130   0.29780   0.01793
S          S       0.19870   0.29780   0.48208
S          S       0.19870   0.70220   0.48208
S          S       0.80130   0.70220   0.01793
N          N       0.76633   0.30303   0.10506
N          N       0.23367   0.30303   0.39494
N          N       0.23367   0.69697   0.39494
N          N       0.76633   0.69697   0.10506
H          H       0.10745   0.96565   0.17961
H          H       0.89255   0.96565   0.32039
H          H       0.89255   0.03435   0.32039
H          H       0.10745   0.03435   0.17961
H          H       0.13837   0.92281   0.18627
H          H       0.86163   0.92281   0.31374
H          H       0.86163   0.07719   0.31374
H          H       0.13837   0.07719   0.18627
H          H       0.07590   0.87519   0.00808
H          H       0.92410   0.87519   0.49193
H          H       0.92410   0.12481   0.49193
H          H       0.07590   0.12481   0.00808
H          H       0.04592   0.91885   0.01439
H          H       0.95408   0.91885   0.48561
H          H       0.95408   0.08115   0.48561
H          H       0.04592   0.08115   0.01439
F          F       0.26594   0.80431   0.10693
F          F       0.73406   0.80431   0.39308
F          F       0.73406   0.19569   0.39308
F          F       0.26594   0.19569   0.10693
F          F       0.30223   0.75933   0.08717
F          F       0.69777   0.75933   0.41284
F          F       0.69777   0.24067   0.41284
F          F       0.30223   0.24067   0.08717
H          H       0.17692   0.77317   0.18930
H          H       0.82308   0.77317   0.31071
H          H       0.82308   0.22683   0.31071
H          H       0.17692   0.22683   0.18930
H          H       0.14344   0.81402   0.20810
H          H       0.85656   0.81402   0.29190
H          H       0.85656   0.18598   0.29190
H          H       0.14344   0.18598   0.20810
H          H       0.20623   0.87340   0.37042
H          H       0.79377   0.87340   0.12959
H          H       0.79377   0.12660   0.12959
H          H       0.20623   0.12660   0.37042
H          H       0.23957   0.83218   0.35650
H          H       0.76043   0.83218   0.14350
H          H       0.76043   0.16782   0.14350
H          H       0.23957   0.16782   0.35650
H          H       0.32394   0.72728   0.31292
H          H       0.67606   0.72728   0.18708
H          H       0.67606   0.27272   0.18708
H          H       0.32394   0.27272   0.31292
H          H       0.35713   0.68611   0.29429
H          H       0.64287   0.68611   0.20571
H          H       0.64287   0.31389   0.20571
H          H       0.35713   0.31389   0.29429
H          H       0.29388   0.62733   0.13188
H          H       0.70612   0.62733   0.36813
H          H       0.70612   0.37267   0.36813
H          H       0.29388   0.37267   0.13188
H          H       0.26088   0.66882   0.14564
H          H       0.73912   0.66882   0.35436
H          H       0.73912   0.33118   0.35436
H          H       0.26088   0.33118   0.14564
H          H       0.11802   0.84805   0.39142
H          H       0.88198   0.84805   0.10858
H          H       0.88198   0.15195   0.10858
H          H       0.11802   0.15195   0.39142
H          H       0.42419   0.37517   0.49230
H          H       0.57581   0.37517   0.00770
H          H       0.57581   0.62483   0.00770
H          H       0.42419   0.62483   0.49230
H          H       0.36168   0.42268   0.31437
H          H       0.63832   0.42268   0.18563
H          H       0.63832   0.57732   0.18563
H          H       0.36168   0.57732   0.31437
H          H       0.39252   0.46558   0.32076
H          H       0.60748   0.46558   0.17924
H          H       0.60748   0.53442   0.17924
H          H       0.39252   0.53442   0.32076
H          H       0.38219   0.34794   0.10936
H          H       0.61781   0.34794   0.39065
H          H       0.61781   0.65206   0.39065
H          H       0.38219   0.65206   0.10936
H          H       0.52325   0.57557   0.28200
H          H       0.47675   0.57557   0.21801
H          H       0.47675   0.42443   0.21801
H          H       0.52325   0.42443   0.28200
H          H       0.02325   0.92443   0.28219
H          H       0.97675   0.92443   0.21782
H          H       0.97675   0.07557   0.21782
H          H       0.02325   0.07557   0.28219
H          H       0.45409   0.41889   0.48574
H          H       0.54591   0.41889   0.01426
H          H       0.54591   0.58111   0.01426
H          H       0.45409   0.58111   0.48574
C          C       0.01392   0.00000   0.27460
C          C       0.98608   0.00000   0.22540
C          C       0.06865   0.00000   0.36748
C          C       0.93135   0.00000   0.13252
H          H       0.08960   0.00000   0.40777
H          H       0.91040   0.00000   0.09224
C          C       0.48607   0.50000   0.22551
C          C       0.51393   0.50000   0.27449
C          C       0.43132   0.50000   0.13308
C          C       0.56868   0.50000   0.36692
H          H       0.41036   0.50000   0.09296
H          H       0.58964   0.50000   0.40704
C          C       0.02815   0.97262   0.79666
C          C       0.97185   0.97262   0.70334
C          C       0.97185   0.02738   0.70334
C          C       0.02815   0.02738   0.79666
C          C       0.01332   0.94569   0.76979
C          C       0.98668   0.94569   0.73021
C          C       0.98668   0.05431   0.73021
C          C       0.01332   0.05431   0.76979
C          C       0.05600   0.97265   0.84054
C          C       0.94400   0.97265   0.65947
C          C       0.94400   0.02735   0.65947
C          C       0.05600   0.02735   0.84054
C          C       0.07378   0.94562   0.84413
C          C       0.92622   0.94562   0.65587
C          C       0.92622   0.05438   0.65587
C          C       0.07378   0.05438   0.84413
C          C       0.10048   0.94608   0.75480
C          C       0.89952   0.94608   0.74520
C          C       0.89952   0.05392   0.74520
C          C       0.10048   0.05392   0.75480
C          C       0.11798   0.92179   0.75701
C          C       0.88202   0.92179   0.74300
C          C       0.88202   0.07821   0.74300
C          C       0.11798   0.07821   0.75701
C          C       0.10943   0.89550   0.84620
C          C       0.89057   0.89550   0.65380
C          C       0.89057   0.10450   0.65380
C          C       0.10943   0.10450   0.84620
C          C       0.08289   0.89500   0.93547
C          C       0.91711   0.89500   0.56453
C          C       0.91711   0.10500   0.56453
C          C       0.08289   0.10500   0.93547
C          C       0.06575   0.91968   0.93718
C          C       0.93425   0.91968   0.56283
C          C       0.93425   0.08032   0.56283
C          C       0.06575   0.08032   0.93718
C          C       0.25770   0.77844   0.68240
C          C       0.74230   0.77844   0.81761
C          C       0.74230   0.22156   0.81761
C          C       0.25770   0.22156   0.68240
C          C       0.27723   0.75422   0.67191
C          C       0.72277   0.75422   0.82810
C          C       0.72277   0.24578   0.82810
C          C       0.27723   0.24578   0.67191
C          C       0.27054   0.72648   0.73852
C          C       0.72946   0.72648   0.76149
C          C       0.72946   0.27352   0.76149
C          C       0.27054   0.27352   0.73852
C          C       0.24301   0.72215   0.82119
C          C       0.75699   0.72215   0.67882
C          C       0.75699   0.27785   0.67882
C          C       0.24301   0.27785   0.82119
C          C       0.22330   0.74658   0.83138
C          C       0.77670   0.74658   0.66863
C          C       0.77670   0.25342   0.66863
C          C       0.22330   0.25342   0.83138
C          C       0.23119   0.77530   0.75979
C          C       0.76881   0.77530   0.74021
C          C       0.76881   0.22470   0.74021
C          C       0.23119   0.22470   0.75979
C          C       0.21076   0.79954   0.77227
C          C       0.78924   0.79954   0.72773
C          C       0.78924   0.20046   0.72773
C          C       0.21076   0.20046   0.77227
C          C       0.29000   0.70130   0.72884
C          C       0.71000   0.70130   0.77116
C          C       0.71000   0.29870   0.77116
C          C       0.29000   0.29870   0.72884
C          C       0.18332   0.79493   0.73265
C          C       0.81668   0.79493   0.76735
C          C       0.81668   0.20507   0.76735
C          C       0.18332   0.20507   0.73265
C          C       0.16435   0.81801   0.74380
C          C       0.83565   0.81801   0.75620
C          C       0.83565   0.18199   0.75620
C          C       0.16435   0.18199   0.74380
C          C       0.17201   0.84679   0.79492
C          C       0.82799   0.84679   0.70508
C          C       0.82799   0.15321   0.70508
C          C       0.17201   0.15321   0.79492
C          C       0.19982   0.85139   0.83188
C          C       0.80018   0.85139   0.66813
C          C       0.80018   0.14861   0.66813
C          C       0.19982   0.14861   0.83188
C          C       0.21861   0.82817   0.82238
C          C       0.78139   0.82817   0.67763
C          C       0.78139   0.17183   0.67763
C          C       0.21861   0.17183   0.82238
C          C       0.31742   0.70557   0.76947
C          C       0.68258   0.70557   0.73054
C          C       0.68258   0.29443   0.73054
C          C       0.31742   0.29443   0.76947
C          C       0.33618   0.68230   0.75882
C          C       0.66382   0.68230   0.74118
C          C       0.66382   0.31770   0.74118
C          C       0.33618   0.31770   0.75882
C          C       0.32830   0.65361   0.70738
C          C       0.67170   0.65361   0.79262
C          C       0.67170   0.34639   0.79262
C          C       0.32830   0.34639   0.70738
C          C       0.30045   0.64926   0.67072
C          C       0.69955   0.64926   0.82929
C          C       0.69955   0.35074   0.82929
C          C       0.30045   0.35074   0.67072
C          C       0.28186   0.67268   0.67974
C          C       0.71814   0.67268   0.82026
C          C       0.71814   0.32732   0.82026
C          C       0.28186   0.32732   0.67974
N          N       0.15388   0.87122   0.80138
N          N       0.84612   0.87122   0.69863
N          N       0.84612   0.12878   0.69863
N          N       0.15388   0.12878   0.80138
C          C       0.12761   0.86939   0.84644
C          C       0.87239   0.86939   0.65356
C          C       0.87239   0.13061   0.65356
C          C       0.12761   0.13061   0.84644
C          C       0.44397   0.52735   0.65986
C          C       0.55603   0.52735   0.84015
C          C       0.55603   0.47265   0.84015
C          C       0.44397   0.47265   0.65986
C          C       0.47184   0.52738   0.70354
C          C       0.52816   0.52738   0.79646
C          C       0.52816   0.47262   0.79646
C          C       0.47184   0.47262   0.70354
C          C       0.48668   0.55431   0.73031
C          C       0.51332   0.55431   0.76970
C          C       0.51332   0.44569   0.76970
C          C       0.48668   0.44569   0.73031
C          C       0.42621   0.44561   0.65617
C          C       0.57379   0.44561   0.84383
C          C       0.57379   0.55439   0.84383
C          C       0.42621   0.55439   0.65617
C          C       0.43427   0.41968   0.56304
C          C       0.56573   0.41968   0.93696
C          C       0.56573   0.58032   0.93696
C          C       0.43427   0.58032   0.56304
C          C       0.41717   0.39497   0.56487
C          C       0.58283   0.39497   0.93514
C          C       0.58283   0.60503   0.93514
C          C       0.41717   0.60503   0.56487
C          C       0.39065   0.39542   0.65437
C          C       0.60935   0.39542   0.84564
C          C       0.60935   0.60458   0.84564
C          C       0.39065   0.60458   0.65437
C          C       0.38206   0.42170   0.74348
C          C       0.61794   0.42170   0.75652
C          C       0.61794   0.57830   0.75652
C          C       0.38206   0.57830   0.74348
C          C       0.39951   0.44602   0.74555
C          C       0.60049   0.44602   0.75445
C          C       0.60049   0.55398   0.75445
C          C       0.39951   0.55398   0.74555
C          C       0.37254   0.36924   0.65454
C          C       0.62746   0.36924   0.84547
C          C       0.62746   0.63076   0.84547
C          C       0.37254   0.63076   0.65454
N          N       0.65372   0.62905   0.79971
N          N       0.34628   0.62905   0.70029
N          N       0.34628   0.37095   0.70029
N          N       0.65372   0.37095   0.79971
N          N       0.80121   0.25985   0.58698
N          N       0.19879   0.25985   0.91303
N          N       0.19879   0.74015   0.91303
N          N       0.80121   0.74015   0.58698
S          S       0.80130   0.29780   0.51793
S          S       0.19870   0.29780   0.98208
S          S       0.19870   0.70220   0.98208
S          S       0.80130   0.70220   0.51793
N          N       0.76633   0.30303   0.60506
N          N       0.23367   0.30303   0.89494
N          N       0.23367   0.69697   0.89494
N          N       0.76633   0.69697   0.60506
H          H       0.10745   0.96565   0.67962
H          H       0.89255   0.96565   0.82039
H          H       0.89255   0.03435   0.82039
H          H       0.10745   0.03435   0.67962
H          H       0.13837   0.92281   0.68627
H          H       0.86163   0.92281   0.81374
H          H       0.86163   0.07719   0.81374
H          H       0.13837   0.07719   0.68627
H          H       0.07590   0.87519   0.50808
H          H       0.92410   0.87519   0.99193
H          H       0.92410   0.12481   0.99193
H          H       0.07590   0.12481   0.50808
H          H       0.04592   0.91885   0.51439
H          H       0.95408   0.91885   0.98561
H          H       0.95408   0.08115   0.98561
H          H       0.04592   0.08115   0.51439
F          F       0.26594   0.80431   0.60693
F          F       0.73406   0.80431   0.89308
F          F       0.73406   0.19569   0.89308
F          F       0.26594   0.19569   0.60693
F          F       0.30223   0.75933   0.58717
F          F       0.69777   0.75933   0.91284
F          F       0.69777   0.24067   0.91284
F          F       0.30223   0.24067   0.58717
H          H       0.17692   0.77317   0.68930
H          H       0.82308   0.77317   0.81071
H          H       0.82308   0.22683   0.81071
H          H       0.17692   0.22683   0.68930
H          H       0.14344   0.81402   0.70810
H          H       0.85656   0.81402   0.79190
H          H       0.85656   0.18598   0.79190
H          H       0.14344   0.18598   0.70810
H          H       0.20623   0.87340   0.87042
H          H       0.79377   0.87340   0.62959
H          H       0.79377   0.12660   0.62959
H          H       0.20623   0.12660   0.87042
H          H       0.23957   0.83218   0.85650
H          H       0.76043   0.83218   0.64350
H          H       0.76043   0.16782   0.64350
H          H       0.23957   0.16782   0.85650
H          H       0.32394   0.72728   0.81292
H          H       0.67606   0.72728   0.68708
H          H       0.67606   0.27272   0.68708
H          H       0.32394   0.27272   0.81292
H          H       0.35713   0.68611   0.79429
H          H       0.64287   0.68611   0.70571
H          H       0.64287   0.31389   0.70571
H          H       0.35713   0.31389   0.79429
H          H       0.29388   0.62733   0.63188
H          H       0.70612   0.62733   0.86813
H          H       0.70612   0.37267   0.86813
H          H       0.29388   0.37267   0.63188
H          H       0.26088   0.66882   0.64564
H          H       0.73912   0.66882   0.85436
H          H       0.73912   0.33118   0.85436
H          H       0.26088   0.33118   0.64564
H          H       0.11802   0.84805   0.89142
H          H       0.88198   0.84805   0.60858
H          H       0.88198   0.15195   0.60858
H          H       0.11802   0.15195   0.89142
H          H       0.42419   0.37517   0.99230
H          H       0.57581   0.37517   0.50770
H          H       0.57581   0.62483   0.50770
H          H       0.42419   0.62483   0.99230
H          H       0.36168   0.42268   0.81437
H          H       0.63832   0.42268   0.68564
H          H       0.63832   0.57732   0.68564
H          H       0.36168   0.57732   0.81437
H          H       0.39252   0.46558   0.82076
H          H       0.60748   0.46558   0.67924
H          H       0.60748   0.53442   0.67924
H          H       0.39252   0.53442   0.82076
H          H       0.38219   0.34794   0.60936
H          H       0.61781   0.34794   0.89065
H          H       0.61781   0.65206   0.89065
H          H       0.38219   0.65206   0.60936
H          H       0.52325   0.57557   0.78200
H          H       0.47675   0.57557   0.71801
H          H       0.47675   0.42443   0.71801
H          H       0.52325   0.42443   0.78200
H          H       0.02325   0.92443   0.78219
H          H       0.97675   0.92443   0.71782
H          H       0.97675   0.07557   0.71782
H          H       0.02325   0.07557   0.78219
H          H       0.45409   0.41889   0.98575
H          H       0.54591   0.41889   0.51426
H          H       0.54591   0.58111   0.51426
H          H       0.45409   0.58111   0.98575
C          C       0.01392   0.00000   0.77460
C          C       0.98608   0.00000   0.72540
C          C       0.06865   0.00000   0.86748
C          C       0.93135   0.00000   0.63252
H          H       0.08960   0.00000   0.90777
H          H       0.91040   0.00000   0.59224
C          C       0.48607   0.50000   0.72551
C          C       0.51393   0.50000   0.77449
C          C       0.43132   0.50000   0.63308
C          C       0.56868   0.50000   0.86692
H          H       0.41036   0.50000   0.59296
H          H       0.58964   0.50000   0.90704
