data_crystal

_cell_length_a    18.71210
_cell_length_b    18.71210
_cell_length_c    6.88320
_cell_angle_alpha 90.00000
_cell_angle_beta  90.00000
_cell_angle_gamma 120.00000

_symmetry_space_group_name_Hall 'P 1'
_symmetry_space_group_name_H-M  'P 1'

loop_
_symmetry_equiv_pos_as_xyz
 'x,y,z'

loop_
_atom_site_label
_atom_site_type_symbol
_atom_site_fract_x
_atom_site_fract_y
_atom_site_fract_z
C          C       0.95049   0.92407   0.97380
N          N       0.03419   0.96958   0.97380
C          C       0.89498   0.08917   0.97380
C          C       0.93421   0.17578   0.97380
C          C       0.88794   0.21567   0.97380
C          C       0.80106   0.16944   0.97380
C          C       0.76212   0.08325   0.97380
C          C       0.80831   0.04333   0.97380
N          N       0.74974   0.20649   0.97380
C          C       0.77379   0.28477   0.97380
C          C       0.71293   0.31307   0.97380
C          C       0.62769   0.25668   0.97380
H          H       0.00086   0.21303   0.97380
H          H       0.92106   0.28224   0.97380
H          H       0.69540   0.04676   0.97380
H          H       0.77595   0.97654   0.97380
H          H       0.83849   0.33088   0.97380
H          H       0.60543   0.19095   0.97380
C          C       0.07338   0.05333   0.97380
N          N       0.02787   0.09152   0.97380
C          C       0.90828   0.83273   0.97380
C          C       0.82167   0.78534   0.97380
C          C       0.78177   0.69918   0.97380
C          C       0.82800   0.65853   0.97380
C          C       0.91420   0.70579   0.97380
C          C       0.95412   0.79189   0.97380
N          N       0.79096   0.57016   0.97380
C          C       0.71268   0.51593   0.97380
C          C       0.68438   0.42678   0.97380
C          C       0.74077   0.39792   0.97380
H          H       0.78442   0.81475   0.97380
H          H       0.71521   0.66573   0.97380
H          H       0.95068   0.67555   0.97380
H          H       0.02091   0.82632   0.97380
H          H       0.66657   0.53453   0.97380
H          H       0.80650   0.44140   0.97380
C          C       0.94412   0.04696   0.97380
N          N       0.90592   0.96326   0.97380
C          C       0.16472   0.10247   0.97380
C          C       0.21211   0.06324   0.97380
C          C       0.29827   0.10951   0.97380
C          C       0.33892   0.19639   0.97380
C          C       0.29166   0.23532   0.97380
C          C       0.20556   0.18914   0.97380
N          N       0.42728   0.24771   0.97380
C          C       0.48152   0.22366   0.97380
C          C       0.57067   0.28452   0.97380
C          C       0.59953   0.36976   0.97380
H          H       0.18270   0.99658   0.97380
H          H       0.33172   0.07639   0.97380
H          H       0.32190   0.30205   0.97380
H          H       0.17113   0.22150   0.97380
H          H       0.46292   0.15896   0.97380
H          H       0.55605   0.39201   0.97380
C          C       0.62783   0.24928   0.50000
N          N       0.71153   0.29479   0.50000
C          C       0.57232   0.41438   0.50000
C          C       0.61155   0.50099   0.50000
C          C       0.56528   0.54089   0.50000
C          C       0.47840   0.49466   0.50000
C          C       0.43946   0.40846   0.50000
C          C       0.48565   0.36855   0.50000
N          N       0.42708   0.53170   0.50000
C          C       0.45112   0.60998   0.50000
C          C       0.39027   0.63828   0.50000
C          C       0.30502   0.58189   0.50000
H          H       0.67820   0.53824   0.50000
H          H       0.59840   0.60745   0.50000
H          H       0.37274   0.37198   0.50000
H          H       0.45328   0.30175   0.50000
H          H       0.51583   0.65609   0.50000
H          H       0.28277   0.51616   0.50000
C          C       0.75072   0.37855   0.50000
N          N       0.70521   0.41674   0.50000
C          C       0.58562   0.15794   0.50000
C          C       0.49901   0.11055   0.50000
C          C       0.45911   0.02439   0.50000
C          C       0.50534   0.98374   0.50000
C          C       0.59154   0.03100   0.50000
C          C       0.63145   0.11710   0.50000
N          N       0.46830   0.89538   0.50000
C          C       0.39002   0.84114   0.50000
C          C       0.36172   0.75199   0.50000
C          C       0.41811   0.72314   0.50000
H          H       0.46176   0.13996   0.50000
H          H       0.39255   0.99094   0.50000
H          H       0.62802   0.00076   0.50000
H          H       0.69825   0.15153   0.50000
H          H       0.34391   0.85974   0.50000
H          H       0.48384   0.76661   0.50000
C          C       0.62145   0.37217   0.50000
N          N       0.58326   0.28847   0.50000
C          C       0.84206   0.42768   0.50000
C          C       0.88945   0.38845   0.50000
C          C       0.97561   0.43472   0.50000
C          C       0.01626   0.52160   0.50000
C          C       0.96900   0.56054   0.50000
C          C       0.88290   0.51435   0.50000
N          N       0.10462   0.57292   0.50000
C          C       0.15886   0.54888   0.50000
C          C       0.24801   0.60973   0.50000
C          C       0.27686   0.69498   0.50000
H          H       0.86004   0.32180   0.50000
H          H       0.00906   0.40160   0.50000
H          H       0.99924   0.62726   0.50000
H          H       0.84847   0.54672   0.50000
H          H       0.14026   0.48417   0.50000
H          H       0.23339   0.71723   0.50000
