data_crystal

_cell_length_a    35.40000
_cell_length_b    33.90000
_cell_length_c    8.74000
_cell_angle_alpha 90.00000
_cell_angle_beta  75.20000
_cell_angle_gamma 90.00000

_space_group_name_Hall 'P 1'
_space_group_name_H-M_alt  'P 1'

loop_
_symmetry_equiv_pos_as_xyz
'x,y,z'

loop_
_atom_site_label
_atom_site_type_symbol
_atom_site_fract_x
_atom_site_fract_y
_atom_site_fract_z
C          C       0.79836   0.33753   0.68138
C          C       0.76260   0.33569   0.62352
C          C       0.75025   0.37020   0.56267
C          C       0.77154   0.40515   0.55576
C          C       0.74128   0.29804   0.62852
H          H       0.80866   0.31163   0.73091
H          H       0.72428   0.37022   0.51877
C          C       0.72618   0.92566   0.45959
C          C       0.75952   0.89919   0.45917
H          H       0.80359   0.94509   0.42199
H          H       0.72382   0.84655   0.49922
C          C       0.06214   0.69409   0.33901
C          C       0.02167   0.69259   0.37037
C          C       0.00105   0.65821   0.43039
C          C       0.02250   0.62328   0.44213
C          C       0.06419   0.62468   0.40678
C          C       0.08389   0.66103   0.36256
C          C       0.08595   0.58997   0.41850
C          C       0.06541   0.55448   0.45950
C          C       0.02510   0.55256   0.48151
C          C       0.00253   0.58679   0.48361
C          C       0.95965   0.65738   0.47485
C          C       0.94078   0.62183   0.52752
C          C       0.96084   0.58599   0.52338
C          C       0.12493   0.66320   0.33926
C          C       0.14579   0.62871   0.34946
C          C       0.12742   0.59206   0.38914
C          C       0.14693   0.70123   0.32051
C          C       0.15327   0.55793   0.40485
C          C       0.93415   0.69188   0.46253
C          C       0.93601   0.54931   0.55041
C          C       0.15172   0.52144   0.32947
C          C       0.17803   0.49102   0.33845
C          C       0.20747   0.49709   0.41819
C          C       0.20996   0.53380   0.48762
C          C       0.18289   0.56350   0.48396
C          C       0.18248   0.70543   0.20461
C          C       0.20567   0.73911   0.20090
C          C       0.19361   0.76928   0.31386
C          C       0.15763   0.76555   0.42574
C          C       0.13475   0.73180   0.43040
C          C       0.90372   0.54725   0.48415
C          C       0.87876   0.51478   0.50942
C          C       0.88570   0.48252   0.59957
C          C       0.91786   0.48413   0.66549
C          C       0.94194   0.51766   0.64599
C          C       0.90328   0.68664   0.39020
C          C       0.87658   0.71688   0.38957
C          C       0.88048   0.75352   0.45710
C          C       0.91141   0.75930   0.52918
C          C       0.93770   0.72851   0.53356
N          N       0.23614   0.46765   0.42774
C          C       0.23391   0.42987   0.40525
C          C       0.26579   0.40312   0.42202
C          C       0.30157   0.41791   0.43984
C          C       0.33133   0.39215   0.45514
C          C       0.32581   0.35114   0.45529
C          C       0.28998   0.33631   0.43835
C          C       0.26040   0.36208   0.42089
N          N       0.21711   0.80335   0.32451
N          N       0.85126   0.78301   0.45679
N          N       0.86176   0.44747   0.62157
C          C       0.82750   0.44463   0.59289
C          C       0.80590   0.40687   0.60823
C          C       0.81908   0.37294   0.67133
C          C       0.31444   0.85330   0.19037
C          C       0.27329   0.84632   0.27681
C          C       0.25516   0.87382   0.39202
C          C       0.27570   0.90668   0.42427
C          C       0.25275   0.81055   0.24412
C          C       0.79764   0.91385   0.43937
C          C       0.82845   0.88831   0.44441
C          C       0.82189   0.84761   0.46679
C          C       0.78379   0.83298   0.48570
C          C       0.75293   0.85857   0.48307
C          C       0.85487   0.82093   0.47007
H          H       0.07622   0.72159   0.29513
H          H       0.00688   0.71886   0.34656
H          H       0.07998   0.52742   0.47491
H          H       0.01239   0.52357   0.49710
H          H       0.90916   0.62191   0.56762
H          H       0.17723   0.63070   0.32967
H          H       0.13107   0.51684   0.25868
H          H       0.17619   0.46365   0.27733
H          H       0.23257   0.53914   0.54844
H          H       0.18535   0.59116   0.54259
H          H       0.19254   0.68233   0.11816
H          H       0.23284   0.74098   0.11041
H          H       0.14797   0.78832   0.51398
H          H       0.10805   0.72903   0.52319
H          H       0.89810   0.57062   0.40829
H          H       0.85530   0.51474   0.45119
H          H       0.92347   0.45985   0.73712
H          H       0.96432   0.51911   0.71006
H          H       0.89946   0.65876   0.33567
H          H       0.85282   0.71183   0.33471
H          H       0.91440   0.78679   0.58773
H          H       0.96007   0.73291   0.59636
H          H       0.20804   0.41717   0.38056
H          H       0.30671   0.44939   0.44091
H          H       0.35869   0.40430   0.46757
H          H       0.28501   0.30481   0.43635
H          H       0.23317   0.34991   0.40701
H          H       0.81389   0.47000   0.55451
H          H       0.84529   0.37384   0.71349
H          H       0.32942   0.83299   0.09942
H          H       0.22512   0.86983   0.45878
H          H       0.76129   0.43114   0.50640
H          H       0.26857   0.79004   0.15624
H          H       0.85750   0.90033   0.42978
H          H       0.77772   0.80179   0.50401
H          H       0.88252   0.83358   0.47629
C          C       0.31496   0.91318   0.34359
C          C       0.33409   0.88639   0.22636
H          H       0.36422   0.89109   0.16209
H          H       0.26080   0.92712   0.51506
C          C       0.35803   0.32448   0.46846
N          N       0.35152   0.28746   0.50473
C          C       0.38071   0.25847   0.51270
C          C       0.41956   0.26124   0.42047
C          C       0.44582   0.23013   0.41779
C          C       0.43388   0.19568   0.50643
C          C       0.39548   0.19378   0.60303
C          C       0.36919   0.22471   0.60500
C          C       0.45918   0.15970   0.48311
C          C       0.33514   0.94831   0.38503
N          N       0.37208   0.95469   0.32120
C          C       0.39463   0.98776   0.35260
C          C       0.38067   0.01425   0.47852
C          C       0.40338   0.04644   0.50067
C          C       0.44062   0.05302   0.39890
C          C       0.45430   0.02663   0.27316
C          C       0.43194   0.99394   0.25254
C          C       0.49817   0.15914   0.49795
C          C       0.52041   0.12377   0.46699
C          C       0.50290   0.08844   0.42988
C          C       0.46324   0.08892   0.42172
C          C       0.44288   0.12477   0.44335
C          C       0.56007   0.12355   0.47680
C          C       0.57725   0.15860   0.51835
C          C       0.55322   0.19179   0.56402
C          C       0.51499   0.19243   0.54947
C          C       0.52523   0.05360   0.40783
C          C       0.56410   0.05362   0.41362
C          C       0.58224   0.08816   0.44720
C          C       0.61760   0.15896   0.51662
C          C       0.63894   0.12375   0.48202
C          C       0.62199   0.08836   0.45143
N          N       0.73182   0.96172   0.40791
C          C       0.70178   0.99050   0.40955
C          C       0.66502   0.98917   0.52002
C          C       0.63826   0.02005   0.52845
C          C       0.64745   0.05262   0.42633
C          C       0.68374   0.05331   0.31356
C          C       0.71065   0.02269   0.30618
N          N       0.71133   0.29540   0.56826
C          C       0.68785   0.26101   0.56203
C          C       0.69332   0.22471   0.63141
C          C       0.66914   0.19258   0.62328
C          C       0.63972   0.19524   0.54138
C          C       0.63501   0.23144   0.46958
C          C       0.65824   0.26402   0.48281
H          H       0.75173   0.27280   0.68102
H          H       0.69683   0.91407   0.50070
H          H       0.38713   0.33664   0.45072
H          H       0.42925   0.28644   0.34478
H          H       0.47512   0.23248   0.34273
H          H       0.38545   0.16766   0.67308
H          H       0.33940   0.22199   0.67626
H          H       0.35267   0.01029   0.56213
H          H       0.39198   0.06608   0.59945
H          H       0.48220   0.03139   0.19020
H          H       0.44320   0.97404   0.15458
H          H       0.41327   0.12543   0.42975
H          H       0.56347   0.21772   0.61293
H          H       0.49860   0.21934   0.58109
H          H       0.51296   0.02544   0.38951
H          H       0.57965   0.02593   0.39241
H          H       0.66978   0.12369   0.47813
H          H       0.65760   0.96548   0.60527
H          H       0.61093   0.01924   0.61862
H          H       0.69168   0.07820   0.23408
H          H       0.73883   0.02434   0.22113
H          H       0.71544   0.22086   0.69525
H          H       0.67370   0.16540   0.68102
H          H       0.61446   0.23429   0.39736
H          H       0.65400   0.29151   0.42629
H          H       0.31798   0.96887   0.46917
C          C       0.19639   0.22572   0.12218
C          C       0.16063   0.22388   0.06433
C          C       0.14828   0.25839   0.00347
C          C       0.16957   0.29334   0.99656
C          C       0.13931   0.18623   0.06933
H          H       0.20669   0.19982   0.17172
H          H       0.12231   0.25841   0.95957
C          C       0.12421   0.81385   0.90039
C          C       0.15755   0.78738   0.89998
H          H       0.20162   0.83328   0.86280
H          H       0.12185   0.73474   0.94002
C          C       0.46017   0.58228   0.77982
C          C       0.41970   0.58078   0.81117
C          C       0.39908   0.54640   0.87120
C          C       0.42053   0.51147   0.88293
C          C       0.46222   0.51287   0.84759
C          C       0.48192   0.54922   0.80336
C          C       0.48398   0.47816   0.85930
C          C       0.46344   0.44267   0.90030
C          C       0.42313   0.44075   0.92231
C          C       0.40056   0.47498   0.92441
C          C       0.35768   0.54557   0.91566
C          C       0.33881   0.51002   0.96833
C          C       0.35887   0.47418   0.96418
C          C       0.52296   0.55139   0.78006
C          C       0.54382   0.51690   0.79026
C          C       0.52545   0.48025   0.82994
C          C       0.54496   0.58942   0.76132
C          C       0.55130   0.44612   0.84566
C          C       0.33218   0.58007   0.90333
C          C       0.33404   0.43750   0.99122
C          C       0.54975   0.40963   0.77028
C          C       0.57606   0.37921   0.77926
C          C       0.60550   0.38528   0.85900
C          C       0.60799   0.42199   0.92843
C          C       0.58092   0.45169   0.92476
C          C       0.58051   0.59362   0.64541
C          C       0.60370   0.62730   0.64170
C          C       0.59164   0.65747   0.75466
C          C       0.55566   0.65374   0.86654
C          C       0.53278   0.61999   0.87120
C          C       0.30175   0.43544   0.92495
C          C       0.27679   0.40297   0.95022
C          C       0.28373   0.37071   0.04038
C          C       0.31589   0.37232   0.10630
C          C       0.33997   0.40585   0.08679
C          C       0.30131   0.57483   0.83101
C          C       0.27461   0.60507   0.83038
C          C       0.27851   0.64171   0.89790
C          C       0.30944   0.64749   0.96999
C          C       0.33573   0.61670   0.97436
N          N       0.63417   0.35584   0.86855
C          C       0.63194   0.31806   0.84605
C          C       0.66382   0.29131   0.86283
C          C       0.69960   0.30610   0.88064
C          C       0.72936   0.28034   0.89594
C          C       0.72384   0.23933   0.89610
C          C       0.68801   0.22450   0.87915
C          C       0.65843   0.25027   0.86170
N          N       0.61514   0.69154   0.76532
N          N       0.24929   0.67120   0.89759
N          N       0.25979   0.33566   0.06238
C          C       0.22553   0.33282   0.03369
C          C       0.20393   0.29506   0.04903
C          C       0.21711   0.26113   0.11213
C          C       0.71247   0.74149   0.63117
C          C       0.67132   0.73451   0.71762
C          C       0.65319   0.76201   0.83282
C          C       0.67373   0.79487   0.86507
C          C       0.65078   0.69874   0.68492
C          C       0.19567   0.80204   0.88018
C          C       0.22648   0.77650   0.88522
C          C       0.21992   0.73580   0.90760
C          C       0.18182   0.72117   0.92650
C          C       0.15096   0.74676   0.92388
C          C       0.25290   0.70912   0.91087
H          H       0.47425   0.60978   0.73593
H          H       0.40491   0.60705   0.78737
H          H       0.47801   0.41561   0.91571
H          H       0.41042   0.41176   0.93791
H          H       0.30719   0.51010   0.00842
H          H       0.57526   0.51889   0.77047
H          H       0.52910   0.40503   0.69948
H          H       0.57422   0.35184   0.71814
H          H       0.63060   0.42733   0.98924
H          H       0.58338   0.47935   0.98339
H          H       0.59057   0.57052   0.55897
H          H       0.63087   0.62917   0.55122
H          H       0.54600   0.67651   0.95479
H          H       0.50608   0.61722   0.96400
H          H       0.29613   0.45881   0.84910
H          H       0.25333   0.40293   0.89199
H          H       0.32150   0.34804   0.17793
H          H       0.36235   0.40730   0.15086
H          H       0.29749   0.54695   0.77648
H          H       0.25085   0.60002   0.77552
H          H       0.31243   0.67498   0.02853
H          H       0.35810   0.62110   0.03717
H          H       0.60607   0.30536   0.82136
H          H       0.70474   0.33758   0.88171
H          H       0.75672   0.29249   0.90837
H          H       0.68304   0.19300   0.87716
H          H       0.63120   0.23810   0.84781
H          H       0.21192   0.35819   0.99532
H          H       0.24332   0.26203   0.15430
H          H       0.72745   0.72118   0.54022
H          H       0.62315   0.75802   0.89959
H          H       0.15932   0.31933   0.94720
H          H       0.66660   0.67823   0.59704
H          H       0.25553   0.78852   0.87059
H          H       0.17575   0.68998   0.94481
H          H       0.28055   0.72177   0.91709
C          C       0.71299   0.80137   0.78440
C          C       0.73212   0.77458   0.66716
H          H       0.76225   0.77928   0.60290
H          H       0.65883   0.81531   0.95587
C          C       0.75606   0.21267   0.90926
N          N       0.74955   0.17565   0.94554
C          C       0.77874   0.14666   0.95351
C          C       0.81759   0.14943   0.86127
C          C       0.84385   0.11832   0.85860
C          C       0.83191   0.08387   0.94723
C          C       0.79351   0.08197   0.04384
C          C       0.76722   0.11290   0.04581
C          C       0.85721   0.04789   0.92392
C          C       0.73317   0.83650   0.82583
N          N       0.77011   0.84288   0.76200
C          C       0.79266   0.87595   0.79340
C          C       0.77870   0.90244   0.91933
C          C       0.80141   0.93463   0.94148
C          C       0.83865   0.94121   0.83971
C          C       0.85233   0.91482   0.71396
C          C       0.82997   0.88213   0.69335
C          C       0.89620   0.04733   0.93876
C          C       0.91844   0.01196   0.90779
C          C       0.90093   0.97663   0.87068
C          C       0.86127   0.97711   0.86252
C          C       0.84091   0.01296   0.88416
C          C       0.95810   0.01174   0.91761
C          C       0.97528   0.04679   0.95915
C          C       0.95125   0.07998   0.00482
C          C       0.91302   0.08062   0.99027
C          C       0.92326   0.94179   0.84864
C          C       0.96213   0.94181   0.85443
C          C       0.98027   0.97635   0.88801
C          C       0.01563   0.04715   0.95742
C          C       0.03697   0.01194   0.92283
C          C       0.02002   0.97655   0.89224
N          N       0.12985   0.84991   0.84871
C          C       0.09981   0.87869   0.85036
C          C       0.06305   0.87736   0.96082
C          C       0.03629   0.90824   0.96926
C          C       0.04548   0.94081   0.86713
C          C       0.08177   0.94150   0.75436
C          C       0.10868   0.91088   0.74698
N          N       0.10936   0.18359   0.00906
C          C       0.08588   0.14920   0.00284
C          C       0.09135   0.11290   0.07222
C          C       0.06717   0.08077   0.06409
C          C       0.03775   0.08343   0.98219
C          C       0.03304   0.11963   0.91038
C          C       0.05627   0.15221   0.92361
H          H       0.14976   0.16099   0.12183
H          H       0.09486   0.80226   0.94151
H          H       0.78516   0.22483   0.89152
H          H       0.82728   0.17463   0.78559
H          H       0.87315   0.12067   0.78354
H          H       0.78348   0.05585   0.11388
H          H       0.73743   0.11018   0.11706
H          H       0.75070   0.89848   0.00293
H          H       0.79001   0.95427   0.04026
H          H       0.88023   0.91958   0.63100
H          H       0.84123   0.86223   0.59538
H          H       0.81130   0.01362   0.87056
H          H       0.96150   0.10591   0.05374
H          H       0.89663   0.10753   0.02189
H          H       0.91099   0.91363   0.83032
H          H       0.97768   0.91412   0.83322
H          H       0.06781   0.01188   0.91894
H          H       0.05563   0.85367   0.04607
H          H       0.00896   0.90743   0.05943
H          H       0.08971   0.96639   0.67488
H          H       0.13686   0.91253   0.66193
H          H       0.11347   0.10905   0.13606
H          H       0.07173   0.05359   0.12182
H          H       0.01249   0.12248   0.83816
H          H       0.05203   0.17970   0.86710
H          H       0.71601   0.85706   0.90990
