data_crystal

_cell_length_a    37.27180
_cell_length_b    37.27180
_cell_length_c    7.04300
_cell_angle_alpha 90.00000
_cell_angle_beta  90.00000
_cell_angle_gamma 120.00000

_symmetry_space_group_name_Hall 'P 1'
_symmetry_space_group_name_H-M  'P 1'

loop_
_symmetry_equiv_pos_as_xyz
 'x,y,z'

loop_
_atom_site_label
_atom_site_type_symbol
_atom_site_fract_x
_atom_site_fract_y
_atom_site_fract_z
C          C       0.55938   0.01483   0.28567
C          C       0.64625   0.83194   0.26255
C          C       0.68960   0.85588   0.24946
C          C       0.70925   0.89780   0.19819
C          C       0.68527   0.91671   0.17277
C          C       0.64233   0.89463   0.20296
C          C       0.62294   0.85197   0.24166
C          C       0.61835   0.91669   0.20303
C          C       0.62566   0.78612   0.29129
C          C       0.75476   0.92178   0.17056
C          C       0.63675   0.95763   0.27092
C          C       0.61403   0.97793   0.28385
C          C       0.57211   0.95763   0.22986
C          C       0.55370   0.91702   0.16139
C          C       0.57659   0.89680   0.14594
C          C       0.77641   0.90279   0.10058
C          C       0.81913   0.92558   0.07341
C          C       0.84174   0.96822   0.11559
C          C       0.82120   0.98838   0.18346
C          C       0.77864   0.96662   0.21388
C          C       0.64539   0.76413   0.23200
C          C       0.62569   0.72123   0.24923
C          C       0.58539   0.69887   0.31950
C          C       0.56545   0.72029   0.38192
C          C       0.58555   0.76345   0.36946
N          N       0.54655   0.97596   0.25425
N          N       0.56626   0.65466   0.32344
N          N       0.88558   0.99269   0.08655
H          H       0.70841   0.84209   0.28136
H          H       0.69998   0.94870   0.12758
H          H       0.58972   0.83461   0.25672
H          H       0.66832   0.97354   0.32265
H          H       0.62911   0.00866   0.34439
H          H       0.52141   0.90099   0.11967
H          H       0.56152   0.86572   0.08858
H          H       0.76026   0.87039   0.06113
H          H       0.83392   0.90956   0.01400
H          H       0.83858   0.02116   0.21583
H          H       0.76377   0.98264   0.27342
H          H       0.67545   0.77951   0.16452
H          H       0.64132   0.70505   0.20033
H          H       0.53487   0.70426   0.44399
H          H       0.56963   0.77876   0.42469
C          C       0.52982   0.02975   0.31540
C          C       0.48706   0.00253   0.34310
C          C       0.46080   0.01906   0.36855
C          C       0.47609   0.06185   0.36137
C          C       0.51902   0.08913   0.33862
C          C       0.54529   0.07259   0.31329
C          C       0.44585   0.07639   0.37338
N          N       0.45748   0.11548   0.36514
H          H       0.59209   0.03742   0.28523
H          H       0.42814   0.99838   0.39501
H          H       0.57794   0.09324   0.28640
H          H       0.41330   0.05343   0.38507
C          C       0.43011   0.13198   0.35567
C          C       0.38999   0.10906   0.28032
C          C       0.36551   0.12728   0.25750
C          C       0.38005   0.16868   0.31267
C          C       0.42009   0.19108   0.39222
C          C       0.44497   0.17306   0.41004
C          C       0.35456   0.18869   0.27482
C          C       0.31131   0.16446   0.25575
C          C       0.28746   0.18191   0.19607
C          C       0.30703   0.22481   0.16729
C          C       0.34946   0.25026   0.20276
C          C       0.37317   0.23182   0.25038
C          C       0.24221   0.15534   0.16305
C          C       0.36844   0.29606   0.19947
C          C       0.22563   0.11438   0.09729
C          C       0.18316   0.08952   0.06668
C          C       0.15658   0.10523   0.09630
C          C       0.17275   0.14591   0.16378
C          C       0.21510   0.17060   0.19769
C          C       0.34556   0.31458   0.26134
C          C       0.36411   0.35752   0.27441
C          C       0.40599   0.38282   0.23087
C          C       0.42871   0.36475   0.16164
C          C       0.41000   0.32178   0.14523
N          N       0.42427   0.42649   0.26130
N          N       0.11316   0.07844   0.06566
H          H       0.37819   0.07785   0.22846
H          H       0.33602   0.10916   0.18715
H          H       0.43247   0.22243   0.44287
H          H       0.47590   0.19107   0.46806
H          H       0.29586   0.13187   0.28979
H          H       0.28932   0.23855   0.11529
H          H       0.40610   0.25136   0.26946
H          H       0.24541   0.10160   0.06615
H          H       0.17095   0.05808   0.01630
H          H       0.15271   0.15830   0.19654
H          H       0.22633   0.20128   0.25553
H          H       0.31375   0.29595   0.30767
H          H       0.34625   0.37112   0.32673
H          H       0.46064   0.38355   0.11785
H          H       0.42813   0.30881   0.08952
C          C       0.08701   0.09062   0.02492
H          H       0.09766   0.12322   0.00414
C          C       0.91091   0.97906   0.05370
H          H       0.90015   0.94623   0.05319
C          C       0.51215   0.58310   0.34403
C          C       0.52743   0.62812   0.35132
H          H       0.50525   0.63838   0.37297
O          O       0.53444   0.13209   0.32648
C          C       0.57315   0.15881   0.41744
O          O       0.47184   0.95966   0.35856
C          C       0.43322   0.93258   0.26767
C          C       0.46969   0.55594   0.37131
C          C       0.45276   0.51261   0.36392
C          C       0.47901   0.49685   0.31502
C          C       0.52150   0.52396   0.29130
C          C       0.53867   0.56688   0.31117
C          C       0.46342   0.45222   0.28703
C          C       0.95571   0.00801   0.03093
C          C       0.98238   0.99177   0.03862
C          C       0.02554   0.01763   0.02684
C          C       0.04212   0.06090   0.01449
C          C       0.01538   0.07694   0.99735
C          C       0.97225   0.05108   0.00893
O          O       0.58135   0.59380   0.28339
C          C       0.60903   0.58301   0.37400
O          O       0.41071   0.48429   0.40530
C          C       0.38563   0.49939   0.48636
O          O       0.05239   0.00140   0.04142
C          C       0.04059   0.96306   0.94718
O          O       0.94536   0.06710   0.98752
C          C       0.95631   0.10526   0.08161
H          H       0.59741   0.17612   0.30977
H          H       0.58365   0.14200   0.51176
H          H       0.56962   0.18166   0.50435
H          H       0.43707   0.90990   0.18100
H          H       0.42241   0.94910   0.17312
H          H       0.40903   0.91510   0.37539
H          H       0.44999   0.56904   0.39716
H          H       0.54138   0.51164   0.25263
H          H       0.48551   0.44142   0.28762
H          H       0.96949   0.95883   0.06080
H          H       0.02831   0.10992   0.97624
H          H       0.62640   0.57623   0.26599
H          H       0.59307   0.55586   0.47003
H          H       0.63175   0.60993   0.45867
H          H       0.35755   0.47297   0.54910
H          H       0.37548   0.51396   0.37847
H          H       0.40262   0.52232   0.59866
H          H       0.06730   0.96682   0.86217
H          H       0.01379   0.95313   0.85016
H          H       0.03302   0.93829   0.05293
H          H       0.96375   0.12997   0.97576
H          H       0.98300   0.11561   0.17971
H          H       0.92925   0.10101   0.16520
C          C       0.55305   0.45411   0.83992
C          C       0.63992   0.27121   0.81680
C          C       0.68328   0.29515   0.80372
C          C       0.70292   0.33708   0.75244
C          C       0.67894   0.35598   0.72703
C          C       0.63600   0.33390   0.75721
C          C       0.61661   0.29124   0.79592
C          C       0.61202   0.35597   0.75728
C          C       0.61934   0.22540   0.84555
C          C       0.74843   0.36105   0.72481
C          C       0.63043   0.39690   0.82518
C          C       0.60770   0.41720   0.83810
C          C       0.56578   0.39690   0.78411
C          C       0.54737   0.35629   0.71565
C          C       0.57026   0.33608   0.70020
C          C       0.77008   0.34206   0.65483
C          C       0.81280   0.36486   0.62766
C          C       0.83542   0.40749   0.66984
C          C       0.81487   0.42765   0.73772
C          C       0.77231   0.40590   0.76813
C          C       0.63906   0.20341   0.78626
C          C       0.61936   0.16050   0.80348
C          C       0.57906   0.13815   0.87375
C          C       0.55912   0.15957   0.93617
C          C       0.57922   0.20273   0.92371
N          N       0.54022   0.41523   0.80850
N          N       0.55993   0.09393   0.87769
N          N       0.87925   0.43197   0.64080
H          H       0.70208   0.28136   0.83562
H          H       0.69366   0.38798   0.68184
H          H       0.58339   0.27388   0.81098
H          H       0.66199   0.41282   0.87691
H          H       0.62278   0.44793   0.89865
H          H       0.51508   0.34027   0.67392
H          H       0.55519   0.30499   0.64283
H          H       0.75394   0.30967   0.61538
H          H       0.82759   0.34883   0.56825
H          H       0.83225   0.46044   0.77008
H          H       0.75744   0.42192   0.82767
H          H       0.66912   0.21879   0.71877
H          H       0.63499   0.14432   0.75459
H          H       0.52854   0.14353   0.99824
H          H       0.56330   0.21803   0.97894
C          C       0.52349   0.46903   0.86965
C          C       0.48074   0.44181   0.89735
C          C       0.45447   0.45833   0.92281
C          C       0.46976   0.50113   0.91562
C          C       0.51269   0.52841   0.89288
C          C       0.53896   0.51187   0.86755
C          C       0.43952   0.51566   0.92764
N          N       0.45115   0.55475   0.91939
H          H       0.58576   0.47669   0.83948
H          H       0.42181   0.43765   0.94927
H          H       0.57161   0.53252   0.84066
H          H       0.40698   0.49270   0.93933
C          C       0.42378   0.57125   0.90992
C          C       0.38366   0.54834   0.83458
C          C       0.35918   0.56656   0.81176
C          C       0.37372   0.60795   0.86693
C          C       0.41376   0.63035   0.94648
C          C       0.43864   0.61233   0.96429
C          C       0.34823   0.62796   0.82908
C          C       0.30498   0.60374   0.81001
C          C       0.28113   0.62118   0.75033
C          C       0.30070   0.66408   0.72154
C          C       0.34313   0.68954   0.75702
C          C       0.36684   0.67110   0.80464
C          C       0.23588   0.59461   0.71730
C          C       0.36211   0.73534   0.75372
C          C       0.21930   0.55366   0.65154
C          C       0.17683   0.52879   0.62093
C          C       0.15025   0.54450   0.65056
C          C       0.16642   0.58519   0.71804
C          C       0.20877   0.60987   0.75194
C          C       0.33923   0.75386   0.81560
C          C       0.35778   0.79680   0.82866
C          C       0.39966   0.82209   0.78513
C          C       0.42238   0.80403   0.71589
C          C       0.40367   0.76105   0.69949
N          N       0.41794   0.86577   0.81556
N          N       0.10683   0.51771   0.61991
H          H       0.37186   0.51712   0.78271
H          H       0.32969   0.54844   0.74140
H          H       0.42614   0.66170   0.99713
H          H       0.46957   0.63035   0.02231
H          H       0.28953   0.57115   0.84404
H          H       0.28299   0.67782   0.66955
H          H       0.39978   0.69064   0.82371
H          H       0.23908   0.54088   0.62041
H          H       0.16462   0.49735   0.57055
H          H       0.14638   0.59758   0.75080
H          H       0.22000   0.64056   0.80979
H          H       0.30742   0.73523   0.86192
H          H       0.33992   0.81039   0.88099
H          H       0.45431   0.82282   0.67210
H          H       0.42180   0.74809   0.64377
C          C       0.08068   0.52990   0.57917
H          H       0.09134   0.56250   0.55840
C          C       0.90458   0.41833   0.60795
H          H       0.89382   0.38550   0.60744
C          C       0.50582   0.02238   0.89828
C          C       0.52110   0.06740   0.90557
H          H       0.49893   0.07766   0.92722
O          O       0.52811   0.57137   0.88073
C          C       0.56682   0.59809   0.97169
O          O       0.46551   0.39894   0.91282
C          C       0.42689   0.37186   0.82193
C          C       0.46336   0.99522   0.92557
C          C       0.44643   0.95188   0.91817
C          C       0.47268   0.93613   0.86927
C          C       0.51517   0.96323   0.84556
C          C       0.53234   0.00616   0.86542
C          C       0.45710   0.89149   0.84128
C          C       0.94938   0.44729   0.58518
C          C       0.97605   0.43104   0.59287
C          C       0.01921   0.45691   0.58109
C          C       0.03579   0.50017   0.56874
C          C       0.00906   0.51622   0.55161
C          C       0.96592   0.49036   0.56319
O          O       0.57502   0.03307   0.83764
C          C       0.60270   0.02229   0.92825
O          O       0.40439   0.92356   0.95955
C          C       0.37931   0.93867   0.04061
O          O       0.04606   0.44068   0.59568
C          C       0.03426   0.40234   0.50143
O          O       0.93903   0.50637   0.54178
C          C       0.94999   0.54453   0.63586
H          H       0.59109   0.61540   0.86402
H          H       0.57732   0.58127   0.06602
H          H       0.56329   0.62094   0.05860
H          H       0.43074   0.34917   0.73525
H          H       0.41608   0.38838   0.72738
H          H       0.40270   0.35438   0.92964
H          H       0.44366   0.00832   0.95142
H          H       0.53505   0.95092   0.80688
H          H       0.47919   0.88069   0.84187
H          H       0.96316   0.39811   0.61505
H          H       0.02198   0.54919   0.53049
H          H       0.62007   0.01550   0.82025
H          H       0.58674   0.99514   0.02428
H          H       0.62542   0.04921   0.01292
H          H       0.35123   0.91224   0.10336
H          H       0.36915   0.95324   0.93272
H          H       0.39629   0.96160   0.15291
H          H       0.06097   0.40610   0.41642
H          H       0.00746   0.39241   0.40442
H          H       0.02670   0.37757   0.60718
H          H       0.95742   0.56925   0.53001
H          H       0.97667   0.55489   0.73396
H          H       0.92292   0.54029   0.71940
