data_crystal

_cell_length_a    37.61430
_cell_length_b    37.46550
_cell_length_c    7.18442
_cell_angle_alpha 90.00000
_cell_angle_beta  90.00000
_cell_angle_gamma 120.00000

_space_group_name_Hall 'P 1'
_space_group_name_H-M_alt  'P 1'

loop_
_symmetry_equiv_pos_as_xyz
'x,y,z'

loop_
_atom_site_label
_atom_site_type_symbol
_atom_site_fract_x
_atom_site_fract_y
_atom_site_fract_z
C          C       0.32363   0.79966   0.26725
C          C       0.41433   0.61862   0.23629
C          C       0.45730   0.64262   0.25031
C          C       0.47726   0.68583   0.26352
C          C       0.45323   0.70498   0.26128
C          C       0.41012   0.68198   0.24837
C          C       0.39125   0.63877   0.23653
C          C       0.38494   0.70298   0.24734
C          C       0.39351   0.57260   0.22112
C          C       0.52308   0.71093   0.27983
C          C       0.40031   0.74275   0.32395
C          C       0.37713   0.76248   0.32061
C          C       0.33739   0.74261   0.24442
C          C       0.32148   0.70287   0.17267
C          C       0.34503   0.68356   0.17061
C          C       0.54577   0.69427   0.36095
C          C       0.58852   0.71755   0.37463
C          C       0.60974   0.75846   0.31009
C          C       0.58741   0.77545   0.23313
C          C       0.54480   0.75194   0.21503
C          C       0.41381   0.55320   0.14187
C          C       0.39436   0.51029   0.12895
C          C       0.35383   0.48564   0.18865
C          C       0.33332   0.50456   0.26876
C          C       0.35306   0.54739   0.28645
N          N       0.31180   0.76099   0.24105
H          H       0.47534   0.62755   0.25098
H          H       0.46834   0.73804   0.27006
H          H       0.35835   0.62053   0.22708
H          H       0.42969   0.75854   0.39330
H          H       0.39001   0.79251   0.38462
H          H       0.29096   0.68720   0.11291
H          H       0.33190   0.65389   0.10312
H          H       0.53065   0.66365   0.42028
H          H       0.60436   0.70372   0.44201
H          H       0.60330   0.80689   0.18250
H          H       0.52933   0.76593   0.14546
H          H       0.44435   0.57092   0.08440
H          H       0.41058   0.49618   0.06703
H          H       0.30265   0.48649   0.32442
H          H       0.33673   0.56036   0.35691
C          C       0.29377   0.81426   0.26156
C          C       0.25177   0.78692   0.23061
C          C       0.22406   0.80145   0.22597
C          C       0.23775   0.84345   0.25197
C          C       0.27975   0.87080   0.28291
C          C       0.30747   0.85626   0.28772
C          C       0.20784   0.85798   0.24636
N          N       0.21975   0.89681   0.26749
H          H       0.35563   0.82205   0.28994
H          H       0.24030   0.75434   0.20974
H          H       0.19185   0.77982   0.20160
H          H       0.29121   0.90337   0.30384
H          H       0.33967   0.87787   0.31217
H          H       0.17580   0.83541   0.22713
C          C       0.19417   0.91523   0.26395
C          C       0.15318   0.89412   0.20158
C          C       0.12989   0.91373   0.20041
C          C       0.14689   0.95473   0.26138
C          C       0.18793   0.97575   0.32204
C          C       0.21127   0.95620   0.32201
C          C       0.12196   0.97546   0.26105
C          C       0.08004   0.95331   0.30529
C          C       0.05568   0.97203   0.29868
C          C       0.07478   0.01450   0.25999
C          C       0.11711   0.03774   0.22181
C          C       0.13997   0.01741   0.21637
C          C       0.01031   0.94688   0.32649
C          C       0.13783   0.08329   0.19305
C          C       0.98877   0.90520   0.27162
C          C       0.94621   0.88185   0.28995
C          C       0.92385   0.89962   0.35817
C          C       0.94500   0.94102   0.41628
C          C       0.98778   0.96429   0.40139
C          C       0.11661   0.10206   0.11770
C          C       0.13574   0.14494   0.10189
C          C       0.17665   0.17000   0.15614
C          C       0.19814   0.15151   0.23017
C          C       0.17889   0.10877   0.24917
H          H       0.13907   0.86296   0.14947
H          H       0.09879   0.89701   0.14764
H          H       0.20184   0.00708   0.37304
H          H       0.24275   0.97288   0.37018
H          H       0.06649   0.92143   0.34758
H          H       0.05664   0.02949   0.25962
H          H       0.17186   0.03413   0.17457
H          H       0.00448   0.89071   0.20844
H          H       0.93034   0.85000   0.24493
H          H       0.92891   0.95534   0.47688
H          H       0.00308   0.99570   0.45166
H          H       0.08537   0.08379   0.06867
H          H       0.11874   0.15872   0.04509
H          H       0.22917   0.16988   0.28137
H          H       0.19591   0.09597   0.31501
N          N       0.87997   0.87437   0.36731
C          C       0.85382   0.88731   0.37938
C          C       0.80929   0.85767   0.38051
C          C       0.79409   0.81498   0.39124
C          C       0.75187   0.78735   0.38545
C          C       0.72409   0.80180   0.36800
C          C       0.73925   0.84451   0.35973
C          C       0.78149   0.87216   0.36642
C          C       0.67971   0.77190   0.35677
N          N       0.65353   0.78420   0.32499
N          N       0.33509   0.44171   0.16998
C          C       0.29588   0.41558   0.17042
C          C       0.28026   0.37088   0.15554
C          C       0.30707   0.35506   0.14193
C          C       0.29158   0.31255   0.13352
C          C       0.24912   0.28510   0.13849
C          C       0.22228   0.30092   0.14958
C          C       0.23778   0.34345   0.15799
C          C       0.23373   0.24034   0.13798
N          N       0.19460   0.21397   0.14378
H          H       0.86409   0.91993   0.37809
H          H       0.81479   0.80287   0.40312
H          H       0.74090   0.75459   0.39279
H          H       0.71853   0.85657   0.34697
H          H       0.79249   0.90492   0.35808
H          H       0.66969   0.73946   0.36905
H          H       0.27391   0.42614   0.17935
H          H       0.34000   0.37546   0.13940
H          H       0.31285   0.30107   0.12504
H          H       0.18937   0.28048   0.15388
H          H       0.21653   0.35494   0.16834
H          H       0.25586   0.22992   0.13327
C          C       0.58568   0.53479   0.75895
C          C       0.67638   0.35375   0.72799
C          C       0.71935   0.37775   0.74201
C          C       0.73931   0.42096   0.75522
C          C       0.71528   0.44011   0.75298
C          C       0.67217   0.41711   0.74007
C          C       0.65330   0.37390   0.72823
C          C       0.64699   0.43811   0.73904
C          C       0.65556   0.30773   0.71282
C          C       0.78513   0.44606   0.77153
C          C       0.66236   0.47788   0.81565
C          C       0.63918   0.49761   0.81231
C          C       0.59944   0.47774   0.73613
C          C       0.58353   0.43800   0.66438
C          C       0.60708   0.41869   0.66231
C          C       0.80782   0.42940   0.85266
C          C       0.85057   0.45268   0.86633
C          C       0.87179   0.49359   0.80179
C          C       0.84946   0.51058   0.72484
C          C       0.80685   0.48707   0.70673
C          C       0.67586   0.28833   0.63357
C          C       0.65641   0.24542   0.62065
C          C       0.61588   0.22077   0.68035
C          C       0.59537   0.23969   0.76046
C          C       0.61511   0.28252   0.77815
N          N       0.57385   0.49612   0.73275
H          H       0.73739   0.36268   0.74268
H          H       0.73039   0.47317   0.76177
H          H       0.62040   0.35566   0.71878
H          H       0.69174   0.49367   0.88500
H          H       0.65206   0.52764   0.87632
H          H       0.55301   0.42233   0.60462
H          H       0.59395   0.38902   0.59482
H          H       0.79270   0.39878   0.91198
H          H       0.86641   0.43885   0.93371
H          H       0.86535   0.54202   0.67421
H          H       0.79138   0.50106   0.63716
H          H       0.70640   0.30605   0.57610
H          H       0.67263   0.23131   0.55873
H          H       0.56470   0.22162   0.81612
H          H       0.59878   0.29549   0.84861
C          C       0.55582   0.54939   0.75326
C          C       0.51382   0.52205   0.72231
C          C       0.48611   0.53658   0.71767
C          C       0.49980   0.57858   0.74367
C          C       0.54180   0.60593   0.77461
C          C       0.56952   0.59139   0.77942
C          C       0.46989   0.59311   0.73806
N          N       0.48180   0.63194   0.75919
H          H       0.61768   0.55718   0.78164
H          H       0.50235   0.48947   0.70144
H          H       0.45390   0.51495   0.69330
H          H       0.55326   0.63850   0.79554
H          H       0.60172   0.61300   0.80388
H          H       0.43785   0.57054   0.71884
C          C       0.45622   0.65036   0.75565
C          C       0.41523   0.62925   0.69329
C          C       0.39194   0.64886   0.69212
C          C       0.40894   0.68986   0.75308
C          C       0.44998   0.71088   0.81374
C          C       0.47332   0.69133   0.81371
C          C       0.38401   0.71059   0.75275
C          C       0.34209   0.68844   0.79699
C          C       0.31773   0.70716   0.79038
C          C       0.33683   0.74963   0.75169
C          C       0.37916   0.77287   0.71351
C          C       0.40202   0.75254   0.70808
C          C       0.27236   0.68201   0.81819
C          C       0.39988   0.81842   0.68476
C          C       0.25082   0.64033   0.76332
C          C       0.20826   0.61698   0.78165
C          C       0.18590   0.63475   0.84987
C          C       0.20705   0.67615   0.90799
C          C       0.24983   0.69942   0.89309
C          C       0.37866   0.83719   0.60940
C          C       0.39779   0.88007   0.59359
C          C       0.43870   0.90513   0.64784
C          C       0.46019   0.88664   0.72187
C          C       0.44094   0.84390   0.74087
H          H       0.40112   0.59809   0.64117
H          H       0.36084   0.63214   0.63934
H          H       0.46389   0.74221   0.86474
H          H       0.50480   0.70801   0.86188
H          H       0.32854   0.65656   0.83928
H          H       0.31869   0.76462   0.75133
H          H       0.43391   0.76926   0.66627
H          H       0.26653   0.62584   0.70015
H          H       0.19239   0.58513   0.73663
H          H       0.19096   0.69047   0.96858
H          H       0.26513   0.73083   0.94336
H          H       0.34742   0.81892   0.56037
H          H       0.38079   0.89385   0.53680
H          H       0.49122   0.90501   0.77307
H          H       0.45796   0.83110   0.80671
N          N       0.14202   0.60950   0.85901
C          C       0.11587   0.62244   0.87108
C          C       0.07134   0.59280   0.87221
C          C       0.05614   0.55011   0.88294
C          C       0.01392   0.52248   0.87716
C          C       0.98614   0.53693   0.85970
C          C       0.00130   0.57964   0.85143
C          C       0.04354   0.60729   0.85813
C          C       0.94176   0.50703   0.84847
N          N       0.91558   0.51933   0.81669
N          N       0.59714   0.17684   0.66168
C          C       0.55793   0.15071   0.66212
C          C       0.54231   0.10601   0.64724
C          C       0.56912   0.09019   0.63363
C          C       0.55363   0.04768   0.62522
C          C       0.51117   0.02023   0.63019
C          C       0.48433   0.03605   0.64128
C          C       0.49983   0.07858   0.64970
C          C       0.49578   0.97547   0.62968
N          N       0.45665   0.94910   0.63548
H          H       0.12614   0.65506   0.86979
H          H       0.07684   0.53800   0.89482
H          H       0.00295   0.48972   0.88450
H          H       0.98058   0.59170   0.83867
H          H       0.05454   0.64005   0.84978
H          H       0.93174   0.47459   0.86076
H          H       0.53596   0.16127   0.67105
H          H       0.60205   0.11059   0.63110
H          H       0.57490   0.03620   0.61674
H          H       0.45142   0.01561   0.64558
H          H       0.47858   0.09007   0.66004
H          H       0.51791   0.96505   0.62497
