data_crystal

_cell_length_a    31.40760
_cell_length_b    22.17290
_cell_length_c    10.47720
_cell_angle_alpha 90.00000
_cell_angle_beta  90.00000
_cell_angle_gamma 90.00000

_space_group_name_Hall 'P 1'
_space_group_name_H-M_alt  'P 1'

loop_
_symmetry_equiv_pos_as_xyz
'x,y,z'

loop_
_atom_site_label
_atom_site_type_symbol
_atom_site_fract_x
_atom_site_fract_y
_atom_site_fract_z
C          C       0.95668   0.93945   0.15865
C          C       0.04332   0.06055   0.15865
C          C       0.54332   0.43945   0.34135
C          C       0.45668   0.56055   0.34135
C          C       0.94551   0.89415   0.06943
C          C       0.05449   0.10585   0.06943
C          C       0.55449   0.39415   0.43057
C          C       0.44551   0.60585   0.43057
C          C       0.90547   0.86556   0.07360
C          C       0.09453   0.13444   0.07360
C          C       0.59453   0.36556   0.42640
C          C       0.40547   0.63444   0.42640
C          C       0.87526   0.88175   0.16737
C          C       0.12474   0.11825   0.16737
C          C       0.62474   0.38175   0.33263
C          C       0.37526   0.61825   0.33263
C          C       0.88601   0.92679   0.25625
C          C       0.11399   0.07321   0.25625
C          C       0.61399   0.42679   0.24375
C          C       0.38601   0.57321   0.24375
C          C       0.92634   0.95424   0.25321
C          C       0.07366   0.04576   0.25321
C          C       0.57366   0.45424   0.24679
C          C       0.42634   0.54576   0.24679
N          N       0.64334   0.67810   0.29705
N          N       0.35666   0.32190   0.29705
N          N       0.85666   0.17810   0.20295
N          N       0.14334   0.82190   0.20295
C          C       0.65171   0.72889   0.22938
C          C       0.34829   0.27111   0.22938
C          C       0.84829   0.22889   0.27062
C          C       0.15171   0.77111   0.27062
C          C       0.69350   0.75026   0.20690
C          C       0.30650   0.24974   0.20690
C          C       0.80650   0.25026   0.29309
C          C       0.19350   0.74974   0.29309
C          C       0.74325   0.82459   0.11230
C          C       0.25675   0.17541   0.11230
C          C       0.75675   0.32459   0.38770
C          C       0.24325   0.67541   0.38770
C          C       0.70073   0.80576   0.14185
C          C       0.29927   0.19424   0.14185
C          C       0.79927   0.30576   0.35815
C          C       0.20073   0.69424   0.35815
O          O       0.74875   0.87739   0.04502
O          O       0.25125   0.12261   0.04502
O          O       0.75125   0.37739   0.45498
O          O       0.24875   0.62261   0.45498
O          O       0.66450   0.83725   0.10858
O          O       0.33550   0.16275   0.10858
O          O       0.83550   0.33725   0.39142
O          O       0.16450   0.66275   0.39142
C          C       0.46733   0.42744   0.33963
C          C       0.53267   0.57256   0.33963
C          C       0.03267   0.92744   0.16037
C          C       0.96733   0.07256   0.16037
C          C       0.46493   0.38318   0.24240
C          C       0.53507   0.61682   0.24240
C          C       0.03507   0.88318   0.25760
C          C       0.96493   0.11682   0.25760
C          C       0.42888   0.34618   0.22840
C          C       0.57112   0.65382   0.22840
C          C       0.07112   0.84618   0.27160
C          C       0.92888   0.15382   0.27160
C          C       0.39378   0.35223   0.31164
C          C       0.60622   0.64777   0.31164
C          C       0.10622   0.85223   0.18836
C          C       0.89378   0.14777   0.18836
C          C       0.39652   0.39424   0.41205
C          C       0.60348   0.60576   0.41205
C          C       0.10348   0.89424   0.08795
C          C       0.89652   0.10576   0.08795
C          C       0.43295   0.43072   0.42651
C          C       0.56705   0.56928   0.42651
C          C       0.06705   0.93072   0.07349
C          C       0.93295   0.06928   0.07349
N          N       0.16400   0.14287   0.17779
N          N       0.83600   0.85713   0.17779
N          N       0.33600   0.64287   0.32221
N          N       0.66400   0.35713   0.32221
C          C       0.17903   0.19596   0.13347
C          C       0.82097   0.80404   0.13347
C          C       0.32097   0.69596   0.36653
C          C       0.67903   0.30404   0.36653
C          C       0.22182   0.21189   0.15206
C          C       0.77818   0.78811   0.15206
C          C       0.27818   0.71189   0.34794
C          C       0.72182   0.28811   0.34794
C          C       0.27110   0.28503   0.24422
C          C       0.72890   0.71497   0.24422
C          C       0.22890   0.78503   0.25578
C          C       0.77110   0.21497   0.25578
C          C       0.22945   0.26667   0.21668
C          C       0.77055   0.73333   0.21668
C          C       0.27055   0.76667   0.28332
C          C       0.72945   0.23333   0.28332
C          C       0.99738   0.96770   0.15547
C          C       0.00262   0.03230   0.15547
C          C       0.50262   0.46770   0.34453
C          C       0.49738   0.53230   0.34453
C          C       0.84115   0.39134   0.46479
C          C       0.15885   0.60866   0.46479
C          C       0.65885   0.89134   0.03521
C          C       0.34115   0.10866   0.03521
C          C       0.72163   0.39518   0.05256
C          C       0.27837   0.60482   0.05256
C          C       0.77837   0.89518   0.44744
C          C       0.22163   0.10482   0.44744
H          H       0.43429   0.45325   0.47945
H          H       0.56571   0.54675   0.47945
H          H       0.06571   0.95325   0.02055
H          H       0.93429   0.04675   0.02055
H          H       0.36981   0.38956   0.47589
H          H       0.63019   0.61044   0.47589
H          H       0.13019   0.88956   0.02411
H          H       0.86981   0.11044   0.02411
H          H       0.48685   0.38942   0.19603
H          H       0.51315   0.61058   0.19603
H          H       0.01315   0.88942   0.30397
H          H       0.98685   0.11058   0.30397
H          H       0.42202   0.30890   0.15399
H          H       0.57798   0.69110   0.15399
H          H       0.07798   0.80890   0.34601
H          H       0.92202   0.19110   0.34601
H          H       0.87006   0.41254   0.00505
H          H       0.12994   0.58746   0.00505
H          H       0.62994   0.91254   0.49495
H          H       0.37006   0.08746   0.49495
H          H       0.83576   0.43916   0.44293
H          H       0.16424   0.56084   0.44293
H          H       0.66424   0.93916   0.05707
H          H       0.33576   0.06084   0.05707
H          H       0.81109   0.41008   0.00587
H          H       0.18891   0.58992   0.00587
H          H       0.68891   0.91008   0.49413
H          H       0.31109   0.08992   0.49413
H          H       0.74621   0.41816   0.09689
H          H       0.25379   0.58184   0.09689
H          H       0.75379   0.91816   0.40311
H          H       0.24621   0.08184   0.40311
H          H       0.71278   0.43995   0.05087
H          H       0.28722   0.56005   0.05087
H          H       0.78722   0.93995   0.44913
H          H       0.21278   0.06005   0.44913
H          H       0.68707   0.40329   0.07247
H          H       0.31293   0.59671   0.07247
H          H       0.81293   0.90329   0.42753
H          H       0.18707   0.09671   0.42753
H          H       0.27199   0.32937   0.24124
H          H       0.72801   0.67063   0.24124
H          H       0.22801   0.82937   0.25876
H          H       0.77199   0.17063   0.25876
H          H       0.20899   0.30797   0.21142
H          H       0.79101   0.69203   0.21142
H          H       0.29101   0.80797   0.28858
H          H       0.70899   0.19203   0.28858
H          H       0.15617   0.22549   0.12875
H          H       0.84383   0.77451   0.12875
H          H       0.34383   0.72549   0.37125
H          H       0.65617   0.27451   0.37125
H          H       0.63196   0.75048   0.22557
H          H       0.36804   0.24952   0.22557
H          H       0.86804   0.25048   0.27443
H          H       0.13196   0.74952   0.27443
H          H       0.92725   0.98076   0.31872
H          H       0.07275   0.01924   0.31872
H          H       0.57275   0.48076   0.18128
H          H       0.42725   0.51924   0.18128
H          H       0.86682   0.94400   0.33641
H          H       0.13318   0.05600   0.33641
H          H       0.63318   0.44400   0.16359
H          H       0.36682   0.55600   0.16359
H          H       0.96665   0.89070   0.02044
H          H       0.03335   0.10930   0.02044
H          H       0.53335   0.39070   0.47956
H          H       0.46665   0.60930   0.47956
H          H       0.89661   0.83106   0.00301
H          H       0.10339   0.16894   0.00301
H          H       0.60339   0.33106   0.49699
H          H       0.39661   0.66894   0.49699
C          C       0.95668   0.93945   0.65865
C          C       0.04332   0.06055   0.65865
C          C       0.54332   0.43945   0.84135
C          C       0.45668   0.56055   0.84135
C          C       0.94551   0.89415   0.56943
C          C       0.05449   0.10585   0.56943
C          C       0.55449   0.39415   0.93057
C          C       0.44551   0.60585   0.93057
C          C       0.90547   0.86556   0.57360
C          C       0.09453   0.13444   0.57360
C          C       0.59453   0.36556   0.92640
C          C       0.40547   0.63444   0.92640
C          C       0.87526   0.88175   0.66737
C          C       0.12474   0.11825   0.66737
C          C       0.62474   0.38175   0.83263
C          C       0.37526   0.61825   0.83263
C          C       0.88601   0.92679   0.75625
C          C       0.11399   0.07321   0.75625
C          C       0.61399   0.42679   0.74375
C          C       0.38601   0.57321   0.74375
C          C       0.92634   0.95424   0.75321
C          C       0.07366   0.04576   0.75321
C          C       0.57366   0.45424   0.74679
C          C       0.42634   0.54576   0.74679
N          N       0.64334   0.67810   0.79705
N          N       0.35666   0.32190   0.79705
N          N       0.85666   0.17810   0.70295
N          N       0.14334   0.82190   0.70295
C          C       0.65171   0.72889   0.72938
C          C       0.34829   0.27111   0.72938
C          C       0.84829   0.22889   0.77062
C          C       0.15171   0.77111   0.77062
C          C       0.69350   0.75026   0.70690
C          C       0.30650   0.24974   0.70690
C          C       0.80650   0.25026   0.79309
C          C       0.19350   0.74974   0.79309
C          C       0.74325   0.82459   0.61230
C          C       0.25675   0.17541   0.61230
C          C       0.75675   0.32459   0.88770
C          C       0.24325   0.67541   0.88770
C          C       0.70073   0.80576   0.64185
C          C       0.29927   0.19424   0.64185
C          C       0.79927   0.30576   0.85815
C          C       0.20073   0.69424   0.85815
O          O       0.74875   0.87739   0.54502
O          O       0.25125   0.12261   0.54502
O          O       0.75125   0.37739   0.95498
O          O       0.24875   0.62261   0.95498
O          O       0.66450   0.83725   0.60858
O          O       0.33550   0.16275   0.60858
O          O       0.83550   0.33725   0.89142
O          O       0.16450   0.66275   0.89142
C          C       0.46733   0.42744   0.83963
C          C       0.53267   0.57256   0.83963
C          C       0.03267   0.92744   0.66037
C          C       0.96733   0.07256   0.66037
C          C       0.46493   0.38318   0.74240
C          C       0.53507   0.61682   0.74240
C          C       0.03507   0.88318   0.75760
C          C       0.96493   0.11682   0.75760
C          C       0.42888   0.34618   0.72840
C          C       0.57112   0.65382   0.72840
C          C       0.07112   0.84618   0.77160
C          C       0.92888   0.15382   0.77160
C          C       0.39378   0.35223   0.81164
C          C       0.60622   0.64777   0.81164
C          C       0.10622   0.85223   0.68836
C          C       0.89378   0.14777   0.68836
C          C       0.39652   0.39424   0.91205
C          C       0.60348   0.60576   0.91205
C          C       0.10348   0.89424   0.58795
C          C       0.89652   0.10576   0.58795
C          C       0.43295   0.43072   0.92651
C          C       0.56705   0.56928   0.92651
C          C       0.06705   0.93072   0.57349
C          C       0.93295   0.06928   0.57349
N          N       0.16400   0.14287   0.67779
N          N       0.83600   0.85713   0.67779
N          N       0.33600   0.64287   0.82221
N          N       0.66400   0.35713   0.82221
C          C       0.17903   0.19596   0.63347
C          C       0.82097   0.80404   0.63347
C          C       0.32097   0.69596   0.86653
C          C       0.67903   0.30404   0.86653
C          C       0.22182   0.21189   0.65206
C          C       0.77818   0.78811   0.65206
C          C       0.27818   0.71189   0.84794
C          C       0.72182   0.28811   0.84794
C          C       0.27110   0.28503   0.74422
C          C       0.72890   0.71497   0.74422
C          C       0.22890   0.78503   0.75578
C          C       0.77110   0.21497   0.75578
C          C       0.22945   0.26667   0.71668
C          C       0.77055   0.73333   0.71668
C          C       0.27055   0.76667   0.78332
C          C       0.72945   0.23333   0.78332
C          C       0.99738   0.96770   0.65547
C          C       0.00262   0.03230   0.65547
C          C       0.50262   0.46770   0.84453
C          C       0.49738   0.53230   0.84453
C          C       0.84115   0.39134   0.96479
C          C       0.15885   0.60866   0.96479
C          C       0.65885   0.89134   0.53521
C          C       0.34115   0.10866   0.53521
C          C       0.72163   0.39518   0.55256
C          C       0.27837   0.60482   0.55256
C          C       0.77837   0.89518   0.94744
C          C       0.22163   0.10482   0.94744
H          H       0.43429   0.45325   0.97945
H          H       0.56571   0.54675   0.97945
H          H       0.06571   0.95325   0.52055
H          H       0.93429   0.04675   0.52055
H          H       0.36981   0.38956   0.97589
H          H       0.63019   0.61044   0.97589
H          H       0.13019   0.88956   0.52411
H          H       0.86981   0.11044   0.52411
H          H       0.48685   0.38942   0.69603
H          H       0.51315   0.61058   0.69603
H          H       0.01315   0.88942   0.80397
H          H       0.98685   0.11058   0.80397
H          H       0.42202   0.30890   0.65399
H          H       0.57798   0.69110   0.65399
H          H       0.07798   0.80890   0.84601
H          H       0.92202   0.19110   0.84601
H          H       0.87006   0.41254   0.50505
H          H       0.12994   0.58746   0.50505
H          H       0.62994   0.91254   0.99495
H          H       0.37006   0.08746   0.99495
H          H       0.83576   0.43916   0.94293
H          H       0.16424   0.56084   0.94293
H          H       0.66424   0.93916   0.55707
H          H       0.33576   0.06084   0.55707
H          H       0.81109   0.41008   0.50587
H          H       0.18891   0.58992   0.50587
H          H       0.68891   0.91008   0.99413
H          H       0.31109   0.08992   0.99413
H          H       0.74621   0.41816   0.59689
H          H       0.25379   0.58184   0.59689
H          H       0.75379   0.91816   0.90311
H          H       0.24621   0.08184   0.90311
H          H       0.71278   0.43995   0.55087
H          H       0.28722   0.56005   0.55087
H          H       0.78722   0.93995   0.94913
H          H       0.21278   0.06005   0.94913
H          H       0.68707   0.40329   0.57247
H          H       0.31293   0.59671   0.57247
H          H       0.81293   0.90329   0.92753
H          H       0.18707   0.09671   0.92753
H          H       0.27199   0.32937   0.74124
H          H       0.72801   0.67063   0.74124
H          H       0.22801   0.82937   0.75876
H          H       0.77199   0.17063   0.75876
H          H       0.20899   0.30797   0.71142
H          H       0.79101   0.69203   0.71142
H          H       0.29101   0.80797   0.78858
H          H       0.70899   0.19203   0.78858
H          H       0.15617   0.22549   0.62875
H          H       0.84383   0.77451   0.62875
H          H       0.34383   0.72549   0.87125
H          H       0.65617   0.27451   0.87125
H          H       0.63196   0.75048   0.72557
H          H       0.36804   0.24952   0.72557
H          H       0.86804   0.25048   0.77443
H          H       0.13196   0.74952   0.77443
H          H       0.92725   0.98076   0.81872
H          H       0.07275   0.01924   0.81872
H          H       0.57275   0.48076   0.68128
H          H       0.42725   0.51924   0.68128
H          H       0.86682   0.94400   0.83641
H          H       0.13318   0.05600   0.83641
H          H       0.63318   0.44400   0.66359
H          H       0.36682   0.55600   0.66359
H          H       0.96665   0.89070   0.52044
H          H       0.03335   0.10930   0.52044
H          H       0.53335   0.39070   0.97956
H          H       0.46665   0.60930   0.97956
H          H       0.89661   0.83106   0.50301
H          H       0.10339   0.16894   0.50301
H          H       0.60339   0.33106   0.99699
H          H       0.39661   0.66894   0.99699
