data_crystal

_cell_length_a    38.75870
_cell_length_b    38.75870
_cell_length_c    10.02100
_cell_angle_alpha 90.00000
_cell_angle_beta  90.00000
_cell_angle_gamma 120.00000

_space_group_name_Hall 'P 1'
_space_group_name_H-M_alt  'P 1'

loop_
_symmetry_equiv_pos_as_xyz
'x,y,z'

loop_
_atom_site_label
_atom_site_type_symbol
_atom_site_fract_x
_atom_site_fract_y
_atom_site_fract_z
C          C       0.48109   0.48144   0.28957
C          C       0.51856   0.99965   0.28957
C          C       0.00035   0.51891   0.28957
C          C       0.51891   0.51856   0.28957
C          C       0.48144   0.00035   0.28957
C          C       0.99965   0.48109   0.28957
C          C       0.44370   0.48035   0.28932
C          C       0.51965   0.96335   0.28932
C          C       0.03665   0.55630   0.28932
C          C       0.55630   0.51965   0.28932
C          C       0.48035   0.03665   0.28932
C          C       0.96335   0.44370   0.28932
C          C       0.41334   0.45731   0.19584
C          C       0.54269   0.95603   0.19584
C          C       0.04397   0.58666   0.19584
C          C       0.58666   0.54269   0.19584
C          C       0.45731   0.04397   0.19584
C          C       0.95603   0.41334   0.19584
C          C       0.37691   0.45725   0.19374
C          C       0.54275   0.91966   0.19374
C          C       0.08034   0.62309   0.19374
C          C       0.62309   0.54275   0.19374
C          C       0.45725   0.08034   0.19374
C          C       0.91966   0.37691   0.19374
C          C       0.36935   0.48035   0.28503
C          C       0.51965   0.88900   0.28503
C          C       0.11100   0.63065   0.28503
C          C       0.63065   0.51965   0.28503
C          C       0.48035   0.11100   0.28503
C          C       0.88900   0.36935   0.28503
C          C       0.39898   0.50255   0.38125
C          C       0.49745   0.89643   0.38125
C          C       0.10357   0.60102   0.38125
C          C       0.60102   0.49745   0.38125
C          C       0.50255   0.10357   0.38125
C          C       0.89643   0.39898   0.38125
C          C       0.43501   0.50206   0.38303
C          C       0.49794   0.93295   0.38303
C          C       0.06705   0.56499   0.38303
C          C       0.56499   0.49794   0.38303
C          C       0.50206   0.06705   0.38303
C          C       0.93295   0.43501   0.38303
C          C       0.47786   0.44299   0.29020
C          C       0.55701   0.03487   0.29020
C          C       0.96513   0.52214   0.29020
C          C       0.52214   0.55701   0.29020
C          C       0.44299   0.96513   0.29020
C          C       0.03487   0.47786   0.29020
C          C       0.45186   0.41235   0.37880
C          C       0.58765   0.03951   0.37880
C          C       0.96049   0.54814   0.37880
C          C       0.54814   0.58765   0.37880
C          C       0.41235   0.96049   0.37880
C          C       0.03951   0.45186   0.37880
C          C       0.44903   0.37461   0.38065
C          C       0.62539   0.07442   0.38065
C          C       0.92558   0.55097   0.38065
C          C       0.55097   0.62539   0.38065
C          C       0.37461   0.92558   0.38065
C          C       0.07442   0.44903   0.38065
C          C       0.47259   0.36626   0.29436
C          C       0.63374   0.10633   0.29436
C          C       0.89367   0.52741   0.29436
C          C       0.52741   0.63374   0.29436
C          C       0.36626   0.89367   0.29436
C          C       0.10633   0.47259   0.29436
C          C       0.49786   0.39590   0.20332
C          C       0.60410   0.10196   0.20332
C          C       0.89804   0.50214   0.20332
C          C       0.50214   0.60410   0.20332
C          C       0.39590   0.89804   0.20332
C          C       0.10196   0.49786   0.20332
C          C       0.50000   0.43319   0.20161
C          C       0.56681   0.06681   0.20161
C          C       0.93319   0.50000   0.20161
C          C       0.50000   0.56681   0.20161
C          C       0.43319   0.93319   0.20161
C          C       0.06681   0.50000   0.20161
N          N       0.33403   0.47958   0.27293
N          N       0.52042   0.85445   0.27293
N          N       0.14555   0.66597   0.27293
N          N       0.66597   0.52042   0.27293
N          N       0.47958   0.14555   0.27293
N          N       0.85445   0.33403   0.27293
N          N       0.46984   0.33006   0.29722
N          N       0.66994   0.13978   0.29722
N          N       0.86022   0.53016   0.29722
N          N       0.53016   0.66994   0.29722
N          N       0.33006   0.86022   0.29722
N          N       0.13978   0.46984   0.29722
C          C       0.32191   0.50253   0.33628
C          C       0.49747   0.81938   0.33628
C          C       0.18062   0.67809   0.33628
C          C       0.67809   0.49747   0.33628
C          C       0.50253   0.18062   0.33628
C          C       0.81938   0.32191   0.33628
C          C       0.28520   0.50088   0.32020
C          C       0.49912   0.78432   0.32020
C          C       0.21568   0.71480   0.32020
C          C       0.71480   0.49912   0.32020
C          C       0.50088   0.21568   0.32020
C          C       0.78432   0.28520   0.32020
C          C       0.25513   0.47613   0.22679
C          C       0.52387   0.77900   0.22679
C          C       0.22100   0.74487   0.22679
C          C       0.74487   0.52387   0.22679
C          C       0.47613   0.22100   0.22679
C          C       0.77900   0.25513   0.22679
C          C       0.21804   0.47546   0.22659
C          C       0.52454   0.74258   0.22659
C          C       0.25742   0.78196   0.22659
C          C       0.78196   0.52454   0.22659
C          C       0.47546   0.25742   0.22659
C          C       0.74258   0.21804   0.22659
C          C       0.21175   0.49985   0.31869
C          C       0.50015   0.71190   0.31869
C          C       0.28810   0.78825   0.31869
C          C       0.78825   0.50015   0.31869
C          C       0.49985   0.28810   0.31869
C          C       0.71190   0.21175   0.31869
C          C       0.24258   0.52587   0.40585
C          C       0.47413   0.71671   0.40585
C          C       0.28329   0.75742   0.40585
C          C       0.75742   0.47413   0.40585
C          C       0.52587   0.28329   0.40585
C          C       0.71671   0.24258   0.40585
C          C       0.27918   0.52623   0.40694
C          C       0.47377   0.75295   0.40694
C          C       0.24705   0.72082   0.40694
C          C       0.72082   0.47377   0.40694
C          C       0.52623   0.24705   0.40694
C          C       0.75295   0.27918   0.40694
C          C       0.17611   0.50063   0.32938
C          C       0.49937   0.67548   0.32938
C          C       0.32452   0.82389   0.32938
C          C       0.82389   0.49937   0.32938
C          C       0.50063   0.32452   0.32938
C          C       0.67548   0.17611   0.32938
O          O       0.25974   0.45202   0.13939
O          O       0.54798   0.80772   0.13939
O          O       0.19228   0.74026   0.13939
O          O       0.74026   0.54798   0.13939
O          O       0.45202   0.19228   0.13939
O          O       0.80772   0.25974   0.13939
O          O       0.18969   0.45074   0.13918
O          O       0.54926   0.73895   0.13918
O          O       0.26105   0.81031   0.13918
O          O       0.81031   0.54926   0.13918
O          O       0.45074   0.26105   0.13918
O          O       0.73895   0.18969   0.13918
H          H       0.52157   0.45846   0.13525
H          H       0.54154   0.06312   0.13525
H          H       0.93688   0.47843   0.13525
H          H       0.47843   0.54154   0.13525
H          H       0.45846   0.93688   0.13525
H          H       0.06312   0.52157   0.13525
H          H       0.51170   0.38185   0.14871
H          H       0.61815   0.12985   0.14871
H          H       0.87015   0.48830   0.14871
H          H       0.48830   0.61815   0.14871
H          H       0.38185   0.87015   0.14871
H          H       0.12985   0.51170   0.14871
H          H       0.43188   0.34894   0.43118
H          H       0.65106   0.08294   0.43118
H          H       0.91706   0.56812   0.43118
H          H       0.56812   0.65106   0.43118
H          H       0.34894   0.91706   0.43118
H          H       0.08294   0.43188   0.43118
H          H       0.43093   0.41466   0.45386
H          H       0.58534   0.01627   0.45386
H          H       0.98373   0.56907   0.45386
H          H       0.56907   0.58534   0.45386
H          H       0.41466   0.98373   0.45386
H          H       0.01627   0.43093   0.45386
H          H       0.45170   0.52123   0.42628
H          H       0.47877   0.93048   0.42628
H          H       0.06952   0.54830   0.42628
H          H       0.54830   0.47877   0.42628
H          H       0.52123   0.06952   0.42628
H          H       0.93048   0.45170   0.42628
H          H       0.39064   0.51274   0.41208
H          H       0.48726   0.87790   0.41208
H          H       0.12210   0.60936   0.41208
H          H       0.60936   0.48726   0.41208
H          H       0.51274   0.12210   0.41208
H          H       0.87790   0.39064   0.41208
H          H       0.41689   0.43616   0.13812
H          H       0.56384   0.98073   0.13812
H          H       0.01927   0.58311   0.13812
H          H       0.58311   0.56384   0.13812
H          H       0.43616   0.01927   0.13812
H          H       0.98073   0.41689   0.13812
H          H       0.35329   0.43479   0.14490
H          H       0.56521   0.91850   0.14490
H          H       0.08150   0.64671   0.14490
H          H       0.64671   0.56521   0.14490
H          H       0.43479   0.08150   0.14490
H          H       0.91850   0.35329   0.14490
H          H       0.34839   0.52112   0.37354
H          H       0.47888   0.82727   0.37354
H          H       0.17273   0.65161   0.37354
H          H       0.65161   0.47888   0.37354
H          H       0.52112   0.17273   0.37354
H          H       0.82727   0.34839   0.37354
H          H       0.29769   0.54204   0.44045
H          H       0.45796   0.75565   0.44045
H          H       0.24435   0.70231   0.44045
H          H       0.70231   0.45796   0.44045
H          H       0.54204   0.24435   0.44045
H          H       0.75565   0.29769   0.44045
H          H       0.23485   0.53990   0.44659
H          H       0.46010   0.69495   0.44659
H          H       0.30505   0.76515   0.44659
H          H       0.76515   0.46010   0.44659
H          H       0.53990   0.30505   0.44659
H          H       0.69495   0.23485   0.44659
H          H       0.16197   0.44629   0.14001
H          H       0.55371   0.71567   0.14001
H          H       0.28433   0.83803   0.14001
H          H       0.83803   0.55371   0.14001
H          H       0.44629   0.28433   0.14001
H          H       0.71567   0.16197   0.14001
H          H       0.23122   0.43195   0.09914
H          H       0.56805   0.79927   0.09914
H          H       0.20073   0.76878   0.09914
H          H       0.76878   0.56805   0.09914
H          H       0.43195   0.20073   0.09914
H          H       0.79927   0.23122   0.09914
H          H       0.18117   0.52647   0.35770
H          H       0.47353   0.65470   0.35770
H          H       0.34530   0.81883   0.35770
H          H       0.81883   0.47353   0.35770
H          H       0.52647   0.34530   0.35770
H          H       0.65470   0.18117   0.35770
C          C       0.48109   0.48144   0.78957
C          C       0.51856   0.99965   0.78957
C          C       0.00035   0.51891   0.78957
C          C       0.51891   0.51856   0.78957
C          C       0.48144   0.00035   0.78957
C          C       0.99965   0.48109   0.78957
C          C       0.44370   0.48035   0.78932
C          C       0.51965   0.96335   0.78932
C          C       0.03665   0.55630   0.78932
C          C       0.55630   0.51965   0.78932
C          C       0.48035   0.03665   0.78932
C          C       0.96335   0.44370   0.78932
C          C       0.41334   0.45731   0.69584
C          C       0.54269   0.95603   0.69584
C          C       0.04397   0.58666   0.69584
C          C       0.58666   0.54269   0.69584
C          C       0.45731   0.04397   0.69584
C          C       0.95603   0.41334   0.69584
C          C       0.37691   0.45725   0.69374
C          C       0.54275   0.91966   0.69374
C          C       0.08034   0.62309   0.69374
C          C       0.62309   0.54275   0.69374
C          C       0.45725   0.08034   0.69374
C          C       0.91966   0.37691   0.69374
C          C       0.36935   0.48035   0.78503
C          C       0.51965   0.88900   0.78503
C          C       0.11100   0.63065   0.78503
C          C       0.63065   0.51965   0.78503
C          C       0.48035   0.11100   0.78503
C          C       0.88900   0.36935   0.78503
C          C       0.39898   0.50255   0.88125
C          C       0.49745   0.89643   0.88125
C          C       0.10357   0.60102   0.88125
C          C       0.60102   0.49745   0.88125
C          C       0.50255   0.10357   0.88125
C          C       0.89643   0.39898   0.88125
C          C       0.43501   0.50206   0.88303
C          C       0.49794   0.93295   0.88303
C          C       0.06705   0.56499   0.88303
C          C       0.56499   0.49794   0.88303
C          C       0.50206   0.06705   0.88303
C          C       0.93295   0.43501   0.88303
C          C       0.47786   0.44299   0.79020
C          C       0.55701   0.03487   0.79020
C          C       0.96513   0.52214   0.79020
C          C       0.52214   0.55701   0.79020
C          C       0.44299   0.96513   0.79020
C          C       0.03487   0.47786   0.79020
C          C       0.45186   0.41235   0.87880
C          C       0.58765   0.03951   0.87880
C          C       0.96049   0.54814   0.87880
C          C       0.54814   0.58765   0.87880
C          C       0.41235   0.96049   0.87880
C          C       0.03951   0.45186   0.87880
C          C       0.44903   0.37461   0.88065
C          C       0.62539   0.07442   0.88065
C          C       0.92558   0.55097   0.88065
C          C       0.55097   0.62539   0.88065
C          C       0.37461   0.92558   0.88065
C          C       0.07442   0.44903   0.88065
C          C       0.47259   0.36626   0.79436
C          C       0.63374   0.10633   0.79436
C          C       0.89367   0.52741   0.79436
C          C       0.52741   0.63374   0.79436
C          C       0.36626   0.89367   0.79436
C          C       0.10633   0.47259   0.79436
C          C       0.49786   0.39590   0.70332
C          C       0.60410   0.10196   0.70332
C          C       0.89804   0.50214   0.70332
C          C       0.50214   0.60410   0.70332
C          C       0.39590   0.89804   0.70332
C          C       0.10196   0.49786   0.70332
C          C       0.50000   0.43319   0.70161
C          C       0.56681   0.06681   0.70161
C          C       0.93319   0.50000   0.70161
C          C       0.50000   0.56681   0.70161
C          C       0.43319   0.93319   0.70161
C          C       0.06681   0.50000   0.70161
N          N       0.33403   0.47958   0.77293
N          N       0.52042   0.85445   0.77293
N          N       0.14555   0.66597   0.77293
N          N       0.66597   0.52042   0.77293
N          N       0.47958   0.14555   0.77293
N          N       0.85445   0.33403   0.77293
N          N       0.46984   0.33006   0.79722
N          N       0.66994   0.13978   0.79722
N          N       0.86022   0.53016   0.79722
N          N       0.53016   0.66994   0.79722
N          N       0.33006   0.86022   0.79722
N          N       0.13978   0.46984   0.79722
C          C       0.32191   0.50253   0.83628
C          C       0.49747   0.81938   0.83628
C          C       0.18062   0.67809   0.83628
C          C       0.67809   0.49747   0.83628
C          C       0.50253   0.18062   0.83628
C          C       0.81938   0.32191   0.83628
C          C       0.28520   0.50088   0.82020
C          C       0.49912   0.78432   0.82020
C          C       0.21568   0.71480   0.82020
C          C       0.71480   0.49912   0.82020
C          C       0.50088   0.21568   0.82020
C          C       0.78432   0.28520   0.82020
C          C       0.25513   0.47613   0.72679
C          C       0.52387   0.77900   0.72679
C          C       0.22100   0.74487   0.72679
C          C       0.74487   0.52387   0.72679
C          C       0.47613   0.22100   0.72679
C          C       0.77900   0.25513   0.72679
C          C       0.21804   0.47546   0.72659
C          C       0.52454   0.74258   0.72659
C          C       0.25742   0.78196   0.72659
C          C       0.78196   0.52454   0.72659
C          C       0.47546   0.25742   0.72659
C          C       0.74258   0.21804   0.72659
C          C       0.21175   0.49985   0.81869
C          C       0.50015   0.71190   0.81869
C          C       0.28810   0.78825   0.81869
C          C       0.78825   0.50015   0.81869
C          C       0.49985   0.28810   0.81869
C          C       0.71190   0.21175   0.81869
C          C       0.24258   0.52587   0.90585
C          C       0.47413   0.71671   0.90585
C          C       0.28329   0.75742   0.90585
C          C       0.75742   0.47413   0.90585
C          C       0.52587   0.28329   0.90585
C          C       0.71671   0.24258   0.90585
C          C       0.27918   0.52623   0.90694
C          C       0.47377   0.75295   0.90694
C          C       0.24705   0.72082   0.90694
C          C       0.72082   0.47377   0.90694
C          C       0.52623   0.24705   0.90694
C          C       0.75295   0.27918   0.90694
C          C       0.17611   0.50063   0.82938
C          C       0.49937   0.67548   0.82938
C          C       0.32452   0.82389   0.82938
C          C       0.82389   0.49937   0.82938
C          C       0.50063   0.32452   0.82938
C          C       0.67548   0.17611   0.82938
O          O       0.25974   0.45202   0.63939
O          O       0.54798   0.80772   0.63939
O          O       0.19228   0.74026   0.63939
O          O       0.74026   0.54798   0.63939
O          O       0.45202   0.19228   0.63939
O          O       0.80772   0.25974   0.63939
O          O       0.18969   0.45074   0.63918
O          O       0.54926   0.73895   0.63918
O          O       0.26105   0.81031   0.63918
O          O       0.81031   0.54926   0.63918
O          O       0.45074   0.26105   0.63918
O          O       0.73895   0.18969   0.63918
H          H       0.52157   0.45846   0.63525
H          H       0.54154   0.06312   0.63525
H          H       0.93688   0.47843   0.63525
H          H       0.47843   0.54154   0.63525
H          H       0.45846   0.93688   0.63525
H          H       0.06312   0.52157   0.63525
H          H       0.51170   0.38185   0.64871
H          H       0.61815   0.12985   0.64871
H          H       0.87015   0.48830   0.64871
H          H       0.48830   0.61815   0.64871
H          H       0.38185   0.87015   0.64871
H          H       0.12985   0.51170   0.64871
H          H       0.43188   0.34894   0.93118
H          H       0.65106   0.08294   0.93118
H          H       0.91706   0.56812   0.93118
H          H       0.56812   0.65106   0.93118
H          H       0.34894   0.91706   0.93118
H          H       0.08294   0.43188   0.93118
H          H       0.43093   0.41466   0.95386
H          H       0.58534   0.01627   0.95386
H          H       0.98373   0.56907   0.95386
H          H       0.56907   0.58534   0.95386
H          H       0.41466   0.98373   0.95386
H          H       0.01627   0.43093   0.95386
H          H       0.45170   0.52123   0.92628
H          H       0.47877   0.93048   0.92628
H          H       0.06952   0.54830   0.92628
H          H       0.54830   0.47877   0.92628
H          H       0.52123   0.06952   0.92628
H          H       0.93048   0.45170   0.92628
H          H       0.39064   0.51274   0.91208
H          H       0.48726   0.87790   0.91208
H          H       0.12210   0.60936   0.91208
H          H       0.60936   0.48726   0.91208
H          H       0.51274   0.12210   0.91208
H          H       0.87790   0.39064   0.91208
H          H       0.41689   0.43616   0.63812
H          H       0.56384   0.98073   0.63812
H          H       0.01927   0.58311   0.63812
H          H       0.58311   0.56384   0.63812
H          H       0.43616   0.01927   0.63812
H          H       0.98073   0.41689   0.63812
H          H       0.35329   0.43479   0.64490
H          H       0.56521   0.91850   0.64490
H          H       0.08150   0.64671   0.64490
H          H       0.64671   0.56521   0.64490
H          H       0.43479   0.08150   0.64490
H          H       0.91850   0.35329   0.64490
H          H       0.34839   0.52112   0.87354
H          H       0.47888   0.82727   0.87354
H          H       0.17273   0.65161   0.87354
H          H       0.65161   0.47888   0.87354
H          H       0.52112   0.17273   0.87354
H          H       0.82727   0.34839   0.87354
H          H       0.29769   0.54204   0.94045
H          H       0.45796   0.75565   0.94045
H          H       0.24435   0.70231   0.94045
H          H       0.70231   0.45796   0.94045
H          H       0.54204   0.24435   0.94045
H          H       0.75565   0.29769   0.94045
H          H       0.23485   0.53990   0.94659
H          H       0.46010   0.69495   0.94659
H          H       0.30505   0.76515   0.94659
H          H       0.76515   0.46010   0.94659
H          H       0.53990   0.30505   0.94659
H          H       0.69495   0.23485   0.94659
H          H       0.16197   0.44629   0.64001
H          H       0.55371   0.71567   0.64001
H          H       0.28433   0.83803   0.64001
H          H       0.83803   0.55371   0.64001
H          H       0.44629   0.28433   0.64001
H          H       0.71567   0.16197   0.64001
H          H       0.23122   0.43195   0.59914
H          H       0.56805   0.79927   0.59914
H          H       0.20073   0.76878   0.59914
H          H       0.76878   0.56805   0.59914
H          H       0.43195   0.20073   0.59914
H          H       0.79927   0.23122   0.59914
H          H       0.18117   0.52647   0.85770
H          H       0.47353   0.65470   0.85770
H          H       0.34530   0.81883   0.85770
H          H       0.81883   0.47353   0.85770
H          H       0.52647   0.34530   0.85770
H          H       0.65470   0.18117   0.85770
