data_crystal

_cell_length_a    21.37520
_cell_length_b    21.37520
_cell_length_c    7.22400
_cell_angle_alpha 90.00000
_cell_angle_beta  90.00000
_cell_angle_gamma 120.00000

_space_group_name_Hall 'P 1'
_space_group_name_H-M_alt  'P 1'

loop_
_symmetry_equiv_pos_as_xyz
'x,y,z'

loop_
_atom_site_label
_atom_site_type_symbol
_atom_site_fract_x
_atom_site_fract_y
_atom_site_fract_z
C          C       0.59565   0.27221   0.25000
C          C       0.72779   0.32344   0.25000
C          C       0.67656   0.40435   0.25000
C          C       0.40435   0.72779   0.25000
C          C       0.27221   0.67656   0.25000
C          C       0.32344   0.59565   0.25000
C          C       0.65713   0.26445   0.25000
C          C       0.73555   0.39268   0.25000
C          C       0.60732   0.34287   0.25000
C          C       0.34287   0.73555   0.25000
C          C       0.26445   0.60732   0.25000
C          C       0.39268   0.65713   0.25000
C          C       0.53479   0.19984   0.25000
C          C       0.80016   0.33495   0.25000
C          C       0.66505   0.46521   0.25000
C          C       0.46521   0.80016   0.25000
C          C       0.19984   0.66505   0.25000
C          C       0.33495   0.53479   0.25000
C          C       0.56287   0.15340   0.25000
C          C       0.84660   0.40947   0.25000
C          C       0.59053   0.43713   0.25000
C          C       0.43713   0.84660   0.25000
C          C       0.15340   0.59053   0.25000
C          C       0.40947   0.56287   0.25000
O          O       0.63738   0.19310   0.25000
O          O       0.80690   0.44428   0.25000
O          O       0.55572   0.36262   0.25000
O          O       0.36262   0.80690   0.25000
O          O       0.19310   0.55572   0.25000
O          O       0.44428   0.63738   0.25000
C          C       0.72024   0.53835   0.25000
C          C       0.46165   0.18189   0.25000
C          C       0.81811   0.27976   0.25000
C          C       0.27976   0.46165   0.25000
C          C       0.53835   0.81811   0.25000
C          C       0.18189   0.72024   0.25000
N          N       0.76724   0.59806   0.25000
N          N       0.40194   0.16918   0.25000
N          N       0.83082   0.23276   0.25000
N          N       0.23276   0.40194   0.25000
N          N       0.59806   0.83082   0.25000
N          N       0.16918   0.76724   0.25000
C          C       0.45504   0.53078   0.25000
C          C       0.46922   0.92426   0.25000
C          C       0.07574   0.54496   0.25000
C          C       0.54496   0.46922   0.25000
C          C       0.53078   0.07574   0.25000
C          C       0.92426   0.45504   0.25000
C          C       0.42479   0.45501   0.25000
C          C       0.54499   0.96978   0.25000
C          C       0.03022   0.57521   0.25000
C          C       0.57521   0.54499   0.25000
C          C       0.45501   0.03022   0.25000
C          C       0.96978   0.42479   0.25000
C          C       0.46898   0.42480   0.25000
C          C       0.57520   0.04418   0.25000
C          C       0.95582   0.53102   0.25000
C          C       0.53102   0.57520   0.25000
C          C       0.42480   0.95582   0.25000
C          C       0.04418   0.46898   0.25000
H          H       0.36645   0.41936   0.25000
H          H       0.58064   0.94709   0.25000
H          H       0.05291   0.63355   0.25000
H          H       0.63355   0.58064   0.25000
H          H       0.41936   0.05291   0.25000
H          H       0.94709   0.36645   0.25000
H          H       0.44462   0.36625   0.25000
H          H       0.63375   0.07837   0.25000
H          H       0.92163   0.55538   0.25000
H          H       0.55538   0.63375   0.25000
H          H       0.36625   0.92163   0.25000
H          H       0.07837   0.44462   0.25000
C          C       0.59565   0.27221   0.75000
C          C       0.72779   0.32344   0.75000
C          C       0.67656   0.40435   0.75000
C          C       0.40435   0.72779   0.75000
C          C       0.27221   0.67656   0.75000
C          C       0.32344   0.59565   0.75000
C          C       0.65713   0.26445   0.75000
C          C       0.73555   0.39268   0.75000
C          C       0.60732   0.34287   0.75000
C          C       0.34287   0.73555   0.75000
C          C       0.26445   0.60732   0.75000
C          C       0.39268   0.65713   0.75000
C          C       0.53479   0.19984   0.75000
C          C       0.80016   0.33495   0.75000
C          C       0.66505   0.46521   0.75000
C          C       0.46521   0.80016   0.75000
C          C       0.19984   0.66505   0.75000
C          C       0.33495   0.53479   0.75000
C          C       0.56287   0.15340   0.75000
C          C       0.84660   0.40947   0.75000
C          C       0.59053   0.43713   0.75000
C          C       0.43713   0.84660   0.75000
C          C       0.15340   0.59053   0.75000
C          C       0.40947   0.56287   0.75000
O          O       0.63738   0.19310   0.75000
O          O       0.80690   0.44428   0.75000
O          O       0.55572   0.36262   0.75000
O          O       0.36262   0.80690   0.75000
O          O       0.19310   0.55572   0.75000
O          O       0.44428   0.63738   0.75000
C          C       0.72024   0.53835   0.75000
C          C       0.46165   0.18189   0.75000
C          C       0.81811   0.27976   0.75000
C          C       0.27976   0.46165   0.75000
C          C       0.53835   0.81811   0.75000
C          C       0.18189   0.72024   0.75000
N          N       0.76724   0.59806   0.75000
N          N       0.40194   0.16918   0.75000
N          N       0.83082   0.23276   0.75000
N          N       0.23276   0.40194   0.75000
N          N       0.59806   0.83082   0.75000
N          N       0.16918   0.76724   0.75000
C          C       0.45504   0.53078   0.75000
C          C       0.46922   0.92426   0.75000
C          C       0.07574   0.54496   0.75000
C          C       0.54496   0.46922   0.75000
C          C       0.53078   0.07574   0.75000
C          C       0.92426   0.45504   0.75000
C          C       0.42479   0.45501   0.75000
C          C       0.54499   0.96978   0.75000
C          C       0.03022   0.57521   0.75000
C          C       0.57521   0.54499   0.75000
C          C       0.45501   0.03022   0.75000
C          C       0.96978   0.42479   0.75000
C          C       0.46898   0.42480   0.75000
C          C       0.57520   0.04418   0.75000
C          C       0.95582   0.53102   0.75000
C          C       0.53102   0.57520   0.75000
C          C       0.42480   0.95582   0.75000
C          C       0.04418   0.46898   0.75000
H          H       0.36645   0.41936   0.75000
H          H       0.58064   0.94709   0.75000
H          H       0.05291   0.63355   0.75000
H          H       0.63355   0.58064   0.75000
H          H       0.41936   0.05291   0.75000
H          H       0.94709   0.36645   0.75000
H          H       0.44462   0.36625   0.75000
H          H       0.63375   0.07837   0.75000
H          H       0.92163   0.55538   0.75000
H          H       0.55538   0.63375   0.75000
H          H       0.36625   0.92163   0.75000
H          H       0.07837   0.44462   0.75000
