data_crystal

_cell_length_a    21.23150
_cell_length_b    21.23150
_cell_length_c    7.22500
_cell_angle_alpha 90.00000
_cell_angle_beta  90.00000
_cell_angle_gamma 120.00000

_space_group_name_Hall 'P 1'
_space_group_name_H-M_alt  'P 1'

loop_
_symmetry_equiv_pos_as_xyz
'x,y,z'

loop_
_atom_site_label
_atom_site_type_symbol
_atom_site_fract_x
_atom_site_fract_y
_atom_site_fract_z
C          C       0.69770   0.40926   0.25000
C          C       0.59074   0.28844   0.25000
C          C       0.71156   0.30230   0.25000
C          C       0.30230   0.59074   0.25000
C          C       0.40926   0.71156   0.25000
C          C       0.28844   0.69770   0.25000
C          C       0.62168   0.36442   0.25000
C          C       0.63558   0.25726   0.25000
C          C       0.74274   0.37832   0.25000
C          C       0.37832   0.63558   0.25000
C          C       0.36442   0.74274   0.25000
C          C       0.25726   0.62168   0.25000
C          C       0.57589   0.39727   0.25000
C          C       0.60273   0.17862   0.25000
C          C       0.82138   0.42411   0.25000
C          C       0.42411   0.60273   0.25000
C          C       0.39727   0.82138   0.25000
C          C       0.17862   0.57589   0.25000
O          O       0.61126   0.47191   0.25000
O          O       0.52809   0.13935   0.25000
O          O       0.86065   0.38874   0.25000
O          O       0.38874   0.52809   0.25000
O          O       0.47191   0.86065   0.25000
O          O       0.13935   0.61126   0.25000
C          C       0.55925   0.49244   0.25000
C          C       0.50756   0.06681   0.25000
C          C       0.93319   0.44075   0.25000
C          C       0.44075   0.50756   0.25000
C          C       0.49244   0.93319   0.25000
C          C       0.06681   0.55925   0.25000
C          C       0.48882   0.42990   0.25000
C          C       0.57010   0.05892   0.25000
C          C       0.94108   0.51118   0.25000
C          C       0.51118   0.57010   0.25000
C          C       0.42990   0.94108   0.25000
C          C       0.05892   0.48882   0.25000
C          C       0.50110   0.36893   0.25000
C          C       0.63107   0.13217   0.25000
C          C       0.86783   0.49890   0.25000
C          C       0.49890   0.63107   0.25000
C          C       0.36893   0.86783   0.25000
C          C       0.13217   0.50110   0.25000
C          C       0.57375   0.56366   0.25000
C          C       0.43634   0.01009   0.25000
C          C       0.98991   0.42625   0.25000
C          C       0.42625   0.43634   0.25000
C          C       0.56366   0.98991   0.25000
C          C       0.01009   0.57375   0.25000
C          C       0.44645   0.29492   0.25000
C          C       0.70508   0.15153   0.25000
C          C       0.84847   0.55355   0.25000
C          C       0.55355   0.70508   0.25000
C          C       0.29492   0.84847   0.25000
C          C       0.15153   0.44645   0.25000
N          N       0.40103   0.23398   0.25000
N          N       0.76602   0.16705   0.25000
N          N       0.83295   0.59897   0.25000
N          N       0.59897   0.76602   0.25000
N          N       0.23398   0.83295   0.25000
N          N       0.16705   0.40103   0.25000
H          H       0.72111   0.46798   0.25000
H          H       0.53202   0.25313   0.25000
H          H       0.74687   0.27889   0.25000
H          H       0.27889   0.53202   0.25000
H          H       0.46798   0.74687   0.25000
H          H       0.25313   0.72111   0.25000
H          H       0.62876   0.61018   0.25000
H          H       0.38982   0.01858   0.25000
H          H       0.98142   0.37124   0.25000
H          H       0.37124   0.38982   0.25000
H          H       0.61018   0.98142   0.25000
H          H       0.01858   0.62876   0.25000
C          C       0.69770   0.40926   0.75000
C          C       0.59074   0.28844   0.75000
C          C       0.71156   0.30230   0.75000
C          C       0.30230   0.59074   0.75000
C          C       0.40926   0.71156   0.75000
C          C       0.28844   0.69770   0.75000
C          C       0.62168   0.36442   0.75000
C          C       0.63558   0.25726   0.75000
C          C       0.74274   0.37832   0.75000
C          C       0.37832   0.63558   0.75000
C          C       0.36442   0.74274   0.75000
C          C       0.25726   0.62168   0.75000
C          C       0.57589   0.39727   0.75000
C          C       0.60273   0.17862   0.75000
C          C       0.82138   0.42411   0.75000
C          C       0.42411   0.60273   0.75000
C          C       0.39727   0.82138   0.75000
C          C       0.17862   0.57589   0.75000
O          O       0.61126   0.47191   0.75000
O          O       0.52809   0.13935   0.75000
O          O       0.86065   0.38874   0.75000
O          O       0.38874   0.52809   0.75000
O          O       0.47191   0.86065   0.75000
O          O       0.13935   0.61126   0.75000
C          C       0.55925   0.49244   0.75000
C          C       0.50756   0.06681   0.75000
C          C       0.93319   0.44075   0.75000
C          C       0.44075   0.50756   0.75000
C          C       0.49244   0.93319   0.75000
C          C       0.06681   0.55925   0.75000
C          C       0.48882   0.42990   0.75000
C          C       0.57010   0.05892   0.75000
C          C       0.94108   0.51118   0.75000
C          C       0.51118   0.57010   0.75000
C          C       0.42990   0.94108   0.75000
C          C       0.05892   0.48882   0.75000
C          C       0.50110   0.36893   0.75000
C          C       0.63107   0.13217   0.75000
C          C       0.86783   0.49890   0.75000
C          C       0.49890   0.63107   0.75000
C          C       0.36893   0.86783   0.75000
C          C       0.13217   0.50110   0.75000
C          C       0.57375   0.56366   0.75000
C          C       0.43634   0.01009   0.75000
C          C       0.98991   0.42625   0.75000
C          C       0.42625   0.43634   0.75000
C          C       0.56366   0.98991   0.75000
C          C       0.01009   0.57375   0.75000
C          C       0.44645   0.29492   0.75000
C          C       0.70508   0.15153   0.75000
C          C       0.84847   0.55355   0.75000
C          C       0.55355   0.70508   0.75000
C          C       0.29492   0.84847   0.75000
C          C       0.15153   0.44645   0.75000
N          N       0.40103   0.23398   0.75000
N          N       0.76602   0.16705   0.75000
N          N       0.83295   0.59897   0.75000
N          N       0.59897   0.76602   0.75000
N          N       0.23398   0.83295   0.75000
N          N       0.16705   0.40103   0.75000
H          H       0.72111   0.46798   0.75000
H          H       0.53202   0.25313   0.75000
H          H       0.74687   0.27889   0.75000
H          H       0.27889   0.53202   0.75000
H          H       0.46798   0.74687   0.75000
H          H       0.25313   0.72111   0.75000
H          H       0.62876   0.61018   0.75000
H          H       0.38982   0.01858   0.75000
H          H       0.98142   0.37124   0.75000
H          H       0.37124   0.38982   0.75000
H          H       0.61018   0.98142   0.75000
H          H       0.01858   0.62876   0.75000
