data_crystal

_cell_length_a    52.81120
_cell_length_b    52.81120
_cell_length_c    20.49140
_cell_angle_alpha 90.00000
_cell_angle_beta  90.00000
_cell_angle_gamma 120.00000

_space_group_name_Hall 'P 1'
_space_group_name_H-M_alt  'P 1'

loop_
_symmetry_equiv_pos_as_xyz
'x,y,z'

loop_
_atom_site_label
_atom_site_type_symbol
_atom_site_fract_x
_atom_site_fract_y
_atom_site_fract_z
C          C       0.40079   0.62437   0.57193
C          C       0.37563   0.77642   0.57193
C          C       0.22358   0.59921   0.57193
C          C       0.59921   0.37563   0.57193
C          C       0.62437   0.22358   0.57193
C          C       0.77642   0.40079   0.57193
C          C       0.59921   0.37563   0.42807
C          C       0.62437   0.22358   0.42807
C          C       0.77642   0.40079   0.42807
C          C       0.40079   0.62437   0.42807
C          C       0.37563   0.77642   0.42807
C          C       0.22358   0.59921   0.42807
C          C       0.43096   0.64208   0.58159
C          C       0.35792   0.78888   0.58159
C          C       0.21112   0.56904   0.58159
C          C       0.56904   0.35792   0.58159
C          C       0.64208   0.21112   0.58159
C          C       0.78888   0.43096   0.58159
C          C       0.56904   0.35792   0.41841
C          C       0.64208   0.21112   0.41841
C          C       0.78888   0.43096   0.41841
C          C       0.43096   0.64208   0.41841
C          C       0.35792   0.78888   0.41841
C          C       0.21112   0.56904   0.41841
C          C       0.44645   0.63150   0.61658
C          C       0.36850   0.81495   0.61658
C          C       0.18505   0.55355   0.61658
C          C       0.55355   0.36850   0.61658
C          C       0.63150   0.18505   0.61658
C          C       0.81495   0.44645   0.61658
C          C       0.55355   0.36850   0.38342
C          C       0.63150   0.18505   0.38342
C          C       0.81495   0.44645   0.38342
C          C       0.44645   0.63150   0.38342
C          C       0.36850   0.81495   0.38342
C          C       0.18505   0.55355   0.38342
C          C       0.43194   0.60315   0.64284
C          C       0.39685   0.82879   0.64284
C          C       0.17121   0.56806   0.64284
C          C       0.56806   0.39685   0.64284
C          C       0.60315   0.17121   0.64284
C          C       0.82879   0.43194   0.64284
C          C       0.56806   0.39685   0.35716
C          C       0.60315   0.17121   0.35716
C          C       0.82879   0.43194   0.35716
C          C       0.43194   0.60315   0.35716
C          C       0.39685   0.82879   0.35716
C          C       0.17121   0.56806   0.35716
C          C       0.40160   0.58549   0.63330
C          C       0.41451   0.81611   0.63330
C          C       0.18389   0.59840   0.63330
C          C       0.59840   0.41451   0.63330
C          C       0.58549   0.18389   0.63330
C          C       0.81611   0.40160   0.63330
C          C       0.59840   0.41451   0.36670
C          C       0.58549   0.18389   0.36670
C          C       0.81611   0.40160   0.36670
C          C       0.40160   0.58549   0.36670
C          C       0.41451   0.81611   0.36670
C          C       0.18389   0.59840   0.36670
C          C       0.38616   0.59607   0.59808
C          C       0.40393   0.79009   0.59808
C          C       0.20991   0.61384   0.59808
C          C       0.61384   0.40393   0.59808
C          C       0.59607   0.20991   0.59808
C          C       0.79009   0.38616   0.59808
C          C       0.61384   0.40393   0.40192
C          C       0.59607   0.20991   0.40192
C          C       0.79009   0.38616   0.40192
C          C       0.38616   0.59607   0.40192
C          C       0.40393   0.79009   0.40192
C          C       0.20991   0.61384   0.40192
C          C       0.44875   0.59256   0.68008
C          C       0.40744   0.85619   0.68008
C          C       0.14381   0.55125   0.68008
C          C       0.55125   0.40744   0.68008
C          C       0.59256   0.14381   0.68008
C          C       0.85619   0.44875   0.68008
C          C       0.55125   0.40744   0.31992
C          C       0.59256   0.14381   0.31992
C          C       0.85619   0.44875   0.31992
C          C       0.44875   0.59256   0.31992
C          C       0.40744   0.85619   0.31992
C          C       0.14381   0.55125   0.31992
N          N       0.43566   0.56715   0.70850
N          N       0.43285   0.86851   0.70850
N          N       0.13149   0.56434   0.70850
N          N       0.56434   0.43285   0.70850
N          N       0.56715   0.13149   0.70850
N          N       0.86851   0.43566   0.70850
N          N       0.56434   0.43285   0.29150
N          N       0.56715   0.13149   0.29150
N          N       0.86851   0.43566   0.29150
N          N       0.43566   0.56715   0.29150
N          N       0.43285   0.86851   0.29150
N          N       0.13149   0.56434   0.29150
C          C       0.43212   0.53120   0.78795
C          C       0.46880   0.90092   0.78795
C          C       0.09908   0.56788   0.78795
C          C       0.56788   0.46880   0.78795
C          C       0.53120   0.09908   0.78795
C          C       0.90092   0.43212   0.78795
C          C       0.56788   0.46880   0.21205
C          C       0.53120   0.09908   0.21205
C          C       0.90092   0.43212   0.21205
C          C       0.43212   0.53120   0.21205
C          C       0.46880   0.90092   0.21205
C          C       0.09908   0.56788   0.21205
C          C       0.44951   0.55444   0.74599
C          C       0.44556   0.89507   0.74599
C          C       0.10493   0.55049   0.74599
C          C       0.55049   0.44556   0.74599
C          C       0.55444   0.10493   0.74599
C          C       0.89507   0.44951   0.74599
C          C       0.55049   0.44556   0.25401
C          C       0.55444   0.10493   0.25401
C          C       0.89507   0.44951   0.25401
C          C       0.44951   0.55444   0.25401
C          C       0.44556   0.89507   0.25401
C          C       0.10493   0.55049   0.25401
C          C       0.47957   0.56395   0.74086
C          C       0.43605   0.91562   0.74086
C          C       0.08438   0.52043   0.74086
C          C       0.52043   0.43605   0.74086
C          C       0.56395   0.08438   0.74086
C          C       0.91562   0.47957   0.74086
C          C       0.52043   0.43605   0.25914
C          C       0.56395   0.08438   0.25914
C          C       0.91562   0.47957   0.25914
C          C       0.47957   0.56395   0.25914
C          C       0.43605   0.91562   0.25914
C          C       0.08438   0.52043   0.25914
C          C       0.49193   0.55083   0.77855
C          C       0.44917   0.94110   0.77855
C          C       0.05890   0.50807   0.77855
C          C       0.50807   0.44917   0.77855
C          C       0.55083   0.05890   0.77855
C          C       0.94110   0.49193   0.77855
C          C       0.50807   0.44917   0.22145
C          C       0.55083   0.05890   0.22145
C          C       0.94110   0.49193   0.22145
C          C       0.49193   0.55083   0.22145
C          C       0.44917   0.94110   0.22145
C          C       0.05890   0.50807   0.22145
C          C       0.47456   0.52814   0.82190
C          C       0.47186   0.94642   0.82190
C          C       0.05358   0.52544   0.82190
C          C       0.52544   0.47186   0.82190
C          C       0.52814   0.05358   0.82190
C          C       0.94642   0.47456   0.82190
C          C       0.52544   0.47186   0.17810
C          C       0.52814   0.05358   0.17810
C          C       0.94642   0.47456   0.17810
C          C       0.47456   0.52814   0.17810
C          C       0.47186   0.94642   0.17810
C          C       0.05358   0.52544   0.17810
C          C       0.44450   0.51815   0.82575
C          C       0.48185   0.92635   0.82575
C          C       0.07365   0.55550   0.82575
C          C       0.55550   0.48185   0.82575
C          C       0.51815   0.07365   0.82575
C          C       0.92635   0.44450   0.82575
C          C       0.55550   0.48185   0.17425
C          C       0.51815   0.07365   0.17425
C          C       0.92635   0.44450   0.17425
C          C       0.44450   0.51815   0.17425
C          C       0.48185   0.92635   0.17425
C          C       0.07365   0.55550   0.17425
C          C       0.48803   0.51486   0.93072
C          C       0.48514   0.97317   0.93072
C          C       0.02683   0.51197   0.93072
C          C       0.51197   0.48514   0.93072
C          C       0.51486   0.02683   0.93072
C          C       0.97317   0.48803   0.93072
C          C       0.51197   0.48514   0.06928
C          C       0.51486   0.02683   0.06928
C          C       0.97317   0.48803   0.06928
C          C       0.48803   0.51486   0.06928
C          C       0.48514   0.97317   0.06928
C          C       0.02683   0.51197   0.06928
C          C       0.48770   0.51430   0.86163
C          C       0.48570   0.97340   0.86163
C          C       0.02660   0.51230   0.86163
C          C       0.51230   0.48570   0.86163
C          C       0.51430   0.02660   0.86163
C          C       0.97340   0.48770   0.86163
C          C       0.51230   0.48570   0.13837
C          C       0.51430   0.02660   0.13837
C          C       0.97340   0.48770   0.13837
C          C       0.48770   0.51430   0.13837
C          C       0.48570   0.97340   0.13837
C          C       0.02660   0.51230   0.13837
C          C       0.38444   0.63541   0.53465
C          C       0.36459   0.74903   0.53465
C          C       0.25097   0.61556   0.53465
C          C       0.61556   0.36459   0.53465
C          C       0.63541   0.25097   0.53465
C          C       0.74903   0.38444   0.53465
C          C       0.61556   0.36459   0.46535
C          C       0.63541   0.25097   0.46535
C          C       0.74903   0.38444   0.46535
C          C       0.38444   0.63541   0.46535
C          C       0.36459   0.74903   0.46535
C          C       0.25097   0.61556   0.46535
C          C       0.36804   0.64535   0.56905
C          C       0.35465   0.72269   0.56905
C          C       0.27731   0.63196   0.56905
C          C       0.63196   0.35465   0.56905
C          C       0.64535   0.27731   0.56905
C          C       0.72269   0.36804   0.56905
C          C       0.63196   0.35465   0.43095
C          C       0.64535   0.27731   0.43095
C          C       0.72269   0.36804   0.43095
C          C       0.36804   0.64535   0.43095
C          C       0.35465   0.72269   0.43095
C          C       0.27731   0.63196   0.43095
C          C       0.47730   0.53034   0.96604
C          C       0.46966   0.94696   0.96604
C          C       0.05304   0.52270   0.96604
C          C       0.52270   0.46966   0.96604
C          C       0.53034   0.05304   0.96604
C          C       0.94696   0.47730   0.96604
C          C       0.52270   0.46966   0.03396
C          C       0.53034   0.05304   0.03396
C          C       0.94696   0.47730   0.03396
C          C       0.47730   0.53034   0.03396
C          C       0.46966   0.94696   0.03396
C          C       0.05304   0.52270   0.03396
C          C       0.35199   0.65531   0.53458
C          C       0.34469   0.69668   0.53458
C          C       0.30332   0.64801   0.53458
C          C       0.64801   0.34469   0.53458
C          C       0.65531   0.30332   0.53458
C          C       0.69668   0.35199   0.53458
C          C       0.64801   0.34469   0.46542
C          C       0.65531   0.30332   0.46542
C          C       0.69668   0.35199   0.46542
C          C       0.35199   0.65531   0.46542
C          C       0.34469   0.69668   0.46542
C          C       0.30332   0.64801   0.46542
H          H       0.44247   0.66408   0.56209
H          H       0.33592   0.77839   0.56209
H          H       0.22161   0.55753   0.56209
H          H       0.55753   0.33592   0.56209
H          H       0.66408   0.22161   0.56209
H          H       0.77839   0.44247   0.56209
H          H       0.55753   0.33592   0.43791
H          H       0.66408   0.22161   0.43791
H          H       0.77839   0.44247   0.43791
H          H       0.44247   0.66408   0.43791
H          H       0.33592   0.77839   0.43791
H          H       0.22161   0.55753   0.43791
H          H       0.46978   0.64552   0.62340
H          H       0.35448   0.82426   0.62340
H          H       0.17574   0.53022   0.62340
H          H       0.53022   0.35448   0.62340
H          H       0.64552   0.17574   0.62340
H          H       0.82426   0.46978   0.62340
H          H       0.53022   0.35448   0.37660
H          H       0.64552   0.17574   0.37660
H          H       0.82426   0.46978   0.37660
H          H       0.46978   0.64552   0.37660
H          H       0.35448   0.82426   0.37660
H          H       0.17574   0.53022   0.37660
H          H       0.38981   0.56353   0.65292
H          H       0.43647   0.82628   0.65292
H          H       0.17372   0.61019   0.65292
H          H       0.61019   0.43647   0.65292
H          H       0.56353   0.17372   0.65292
H          H       0.82628   0.38981   0.65292
H          H       0.61019   0.43647   0.34708
H          H       0.56353   0.17372   0.34708
H          H       0.82628   0.38981   0.34708
H          H       0.38981   0.56353   0.34708
H          H       0.43647   0.82628   0.34708
H          H       0.17372   0.61019   0.34708
H          H       0.36283   0.58220   0.59098
H          H       0.41780   0.78063   0.59098
H          H       0.21937   0.63717   0.59098
H          H       0.63717   0.41780   0.59098
H          H       0.58220   0.21937   0.59098
H          H       0.78063   0.36283   0.59098
H          H       0.63717   0.41780   0.40902
H          H       0.58220   0.21937   0.40902
H          H       0.78063   0.36283   0.40902
H          H       0.36283   0.58220   0.40902
H          H       0.41780   0.78063   0.40902
H          H       0.21937   0.63717   0.40902
H          H       0.47211   0.60685   0.68493
H          H       0.39315   0.86526   0.68493
H          H       0.13474   0.52789   0.68493
H          H       0.52789   0.39315   0.68493
H          H       0.60685   0.13474   0.68493
H          H       0.86526   0.47211   0.68493
H          H       0.52789   0.39315   0.31507
H          H       0.60685   0.13474   0.31507
H          H       0.86526   0.47211   0.31507
H          H       0.47211   0.60685   0.31507
H          H       0.39315   0.86526   0.31507
H          H       0.13474   0.52789   0.31507
H          H       0.40890   0.52334   0.79170
H          H       0.47666   0.88556   0.79170
H          H       0.11444   0.59110   0.79170
H          H       0.59110   0.47666   0.79170
H          H       0.52334   0.11444   0.79170
H          H       0.88556   0.40890   0.79170
H          H       0.59110   0.47666   0.20830
H          H       0.52334   0.11444   0.20830
H          H       0.88556   0.40890   0.20830
H          H       0.40890   0.52334   0.20830
H          H       0.47666   0.88556   0.20830
H          H       0.11444   0.59110   0.20830
H          H       0.49355   0.58110   0.70737
H          H       0.41890   0.91245   0.70737
H          H       0.08755   0.50645   0.70737
H          H       0.50645   0.41890   0.70737
H          H       0.58110   0.08755   0.70737
H          H       0.91245   0.49355   0.70737
H          H       0.50645   0.41890   0.29263
H          H       0.58110   0.08755   0.29263
H          H       0.91245   0.49355   0.29263
H          H       0.49355   0.58110   0.29263
H          H       0.41890   0.91245   0.29263
H          H       0.08755   0.50645   0.29263
H          H       0.51508   0.55844   0.77418
H          H       0.44156   0.95664   0.77418
H          H       0.04336   0.48492   0.77418
H          H       0.48492   0.44156   0.77418
H          H       0.55844   0.04336   0.77418
H          H       0.95664   0.51508   0.77418
H          H       0.48492   0.44156   0.22582
H          H       0.55844   0.04336   0.22582
H          H       0.95664   0.51508   0.22582
H          H       0.51508   0.55844   0.22582
H          H       0.44156   0.95664   0.22582
H          H       0.04336   0.48492   0.22582
H          H       0.43068   0.50029   0.85808
H          H       0.49971   0.93039   0.85808
H          H       0.06961   0.56932   0.85808
H          H       0.56932   0.49971   0.85808
H          H       0.50029   0.06961   0.85808
H          H       0.93039   0.43068   0.85808
H          H       0.56932   0.49971   0.14192
H          H       0.50029   0.06961   0.14192
H          H       0.93039   0.43068   0.14192
H          H       0.43068   0.50029   0.14192
H          H       0.49971   0.93039   0.14192
H          H       0.06961   0.56932   0.14192
H          H       0.36776   0.64530   0.62191
H          H       0.35470   0.72246   0.62191
H          H       0.27754   0.63224   0.62191
H          H       0.63224   0.35470   0.62191
H          H       0.64530   0.27754   0.62191
H          H       0.72246   0.36776   0.62191
H          H       0.63224   0.35470   0.37809
H          H       0.64530   0.27754   0.37809
H          H       0.72246   0.36776   0.37809
H          H       0.36776   0.64530   0.37809
H          H       0.35470   0.72246   0.37809
H          H       0.27754   0.63224   0.37809
H          H       0.46904   0.54288   0.94156
H          H       0.45712   0.92616   0.94156
H          H       0.07384   0.53096   0.94156
H          H       0.53096   0.45712   0.94156
H          H       0.54288   0.07384   0.94156
H          H       0.92616   0.46904   0.94156
H          H       0.53096   0.45712   0.05844
H          H       0.54288   0.07384   0.05844
H          H       0.92616   0.46904   0.05844
H          H       0.46904   0.54288   0.05844
H          H       0.45712   0.92616   0.05844
H          H       0.07384   0.53096   0.05844
C          C       0.50000   0.50000   0.82852
C          C       0.50000   0.00000   0.82852
C          C       0.00000   0.50000   0.82852
C          C       0.50000   0.50000   0.17148
C          C       0.50000   0.00000   0.17148
C          C       0.00000   0.50000   0.17148
C          C       0.50000   0.50000   0.03467
C          C       0.50000   0.00000   0.03467
C          C       0.00000   0.50000   0.03467
C          C       0.50000   0.50000   0.96533
C          C       0.50000   0.00000   0.96533
C          C       0.00000   0.50000   0.96533
C          C       0.33333   0.66667   0.43428
C          C       0.66667   0.33333   0.43428
C          C       0.66667   0.33333   0.56572
C          C       0.33333   0.66667   0.56572
H          H       0.50000   0.50000   0.22278
H          H       0.50000   0.00000   0.22278
H          H       0.00000   0.50000   0.22278
H          H       0.50000   0.50000   0.77722
H          H       0.50000   0.00000   0.77722
H          H       0.00000   0.50000   0.77722
H          H       0.33333   0.66667   0.62033
H          H       0.66667   0.33333   0.62033
H          H       0.66667   0.33333   0.37967
H          H       0.33333   0.66667   0.37967
