data_crystal

_cell_length_a    29.95500
_cell_length_b    29.95500
_cell_length_c    7.46600
_cell_angle_alpha 90.00000
_cell_angle_beta  90.00000
_cell_angle_gamma 120.00000

_space_group_name_Hall 'P 1'
_space_group_name_H-M_alt  'P 1'

loop_
_symmetry_equiv_pos_as_xyz
'x,y,z'

loop_
_atom_site_label
_atom_site_type_symbol
_atom_site_fract_x
_atom_site_fract_y
_atom_site_fract_z
N          N       0.19204   0.10598   0.33412
N          N       0.89402   0.08606   0.33412
N          N       0.91394   0.80796   0.33412
C          C       0.31624   0.93188   0.38098
C          C       0.06812   0.38436   0.38098
C          C       0.61564   0.68376   0.38098
C          C       0.23053   0.15693   0.33882
C          C       0.84307   0.07360   0.33882
C          C       0.92640   0.76947   0.33882
C          C       0.64949   0.74994   0.18694
C          C       0.25006   0.89955   0.18694
C          C       0.10045   0.35051   0.18694
O          O       0.22194   0.19165   0.37361
O          O       0.80835   0.03029   0.37361
O          O       0.96971   0.77806   0.37361
H          H       0.20148   0.07872   0.31445
H          H       0.92128   0.12276   0.31445
H          H       0.87724   0.79852   0.31445
C          C       0.28329   0.16474   0.30301
C          C       0.83526   0.11855   0.30301
C          C       0.88145   0.71671   0.30301
H          H       0.25717   0.08748   0.20047
H          H       0.91252   0.16969   0.20047
H          H       0.83031   0.74283   0.20047
C          C       0.29015   0.12542   0.23474
C          C       0.87458   0.16473   0.23474
C          C       0.83527   0.70985   0.23474
H          H       0.40837   0.25691   0.34203
H          H       0.74309   0.15146   0.34203
H          H       0.84854   0.59163   0.34203
C          C       0.33866   0.13167   0.20671
C          C       0.86833   0.20699   0.20671
C          C       0.79301   0.66134   0.20671
H          H       0.12246   0.01111   0.34449
H          H       0.98889   0.11135   0.34449
H          H       0.88865   0.87754   0.34449
C          C       0.38227   0.17938   0.24220
C          C       0.82062   0.20289   0.24220
C          C       0.79711   0.61773   0.24220
H          H       0.05946   0.09469   0.35104
H          H       0.90531   0.96477   0.35104
H          H       0.03523   0.94054   0.35104
C          C       0.37534   0.21885   0.30920
C          C       0.78115   0.15649   0.30920
C          C       0.84351   0.62466   0.30920
H          H       0.46561   0.26457   0.24169
H          H       0.73543   0.20104   0.24169
H          H       0.79896   0.53439   0.24169
C          C       0.32672   0.21235   0.34111
C          C       0.78765   0.11437   0.34111
C          C       0.88563   0.67328   0.34111
H          H       0.54834   0.33139   0.22487
H          H       0.66861   0.21695   0.22487
H          H       0.78305   0.45166   0.22487
C          C       0.43486   0.18635   0.20910
C          C       0.81365   0.24851   0.20910
C          C       0.75149   0.56514   0.20910
H          H       0.63760   0.39763   0.21522
H          H       0.60237   0.23997   0.21522
H          H       0.76003   0.36240   0.21522
N          N       0.14123   0.08866   0.35176
N          N       0.91134   0.05257   0.35176
N          N       0.94743   0.85877   0.35176
H          H       0.29230   0.24994   0.39344
H          H       0.75006   0.04236   0.39344
H          H       0.95764   0.70770   0.39344
C          C       0.10935   0.03946   0.34939
C          C       0.96054   0.06989   0.34939
C          C       0.93011   0.89065   0.34939
H          H       0.30007   0.05142   0.36904
H          H       0.94858   0.24865   0.36904
H          H       0.75135   0.69993   0.36904
C          C       0.05416   0.02021   0.35158
C          C       0.97979   0.03395   0.35158
C          C       0.96605   0.94584   0.35158
H          H       0.36588   0.07055   0.37585
H          H       0.92945   0.29533   0.37585
H          H       0.70467   0.63412   0.37585
C          C       0.03296   0.05261   0.35181
C          C       0.94739   0.98035   0.35181
C          C       0.01965   0.96704   0.35181
H          H       0.35964   0.00227   0.19210
H          H       0.99773   0.35737   0.19210
H          H       0.64263   0.64036   0.19210
O          O       0.44346   0.15170   0.17300
O          O       0.84830   0.29176   0.17300
O          O       0.70824   0.55654   0.17300
H          H       0.31019   0.00091   0.06309
H          H       0.99909   0.30928   0.06309
H          H       0.69072   0.68981   0.06309
N          N       0.47423   0.23682   0.22018
N          N       0.76318   0.23741   0.22018
N          N       0.76259   0.52577   0.22018
H          H       0.20251   0.92119   0.37446
H          H       0.07881   0.28132   0.37446
H          H       0.71868   0.79749   0.37446
N          N       0.52483   0.25256   0.20731
N          N       0.74744   0.27227   0.20731
N          N       0.72773   0.47517   0.20731
H          H       0.23158   0.97602   0.23713
H          H       0.02398   0.25556   0.23713
H          H       0.74444   0.76842   0.23713
C          C       0.55883   0.30109   0.21612
C          C       0.69891   0.25774   0.21612
C          C       0.74226   0.44117   0.21612
H          H       0.24718   0.98218   0.46734
H          H       0.01782   0.26500   0.46734
H          H       0.73500   0.75282   0.46734
C          C       0.61321   0.31670   0.21477
C          C       0.68330   0.29651   0.21477
C          C       0.70349   0.38679   0.21477
H          H       0.34284   0.93314   0.27579
H          H       0.06686   0.40970   0.27579
H          H       0.59030   0.65716   0.27579
C          C       0.65047   0.36905   0.21469
C          C       0.63095   0.28142   0.21469
C          C       0.71858   0.34953   0.21469
H          H       0.29457   0.89131   0.41954
H          H       0.10869   0.40326   0.41954
H          H       0.59674   0.70543   0.41954
O          O       0.32544   0.25379   0.41193
O          O       0.74621   0.07165   0.41193
O          O       0.92835   0.67456   0.41193
H          H       0.34026   0.95697   0.48706
H          H       0.04303   0.38329   0.48706
H          H       0.61671   0.65974   0.48706
O          O       0.34160   0.08989   0.14275
O          O       0.91011   0.25171   0.14275
O          O       0.74829   0.65840   0.14275
H          H       0.60939   0.72733   0.14485
H          H       0.27267   0.88206   0.14485
H          H       0.11794   0.39061   0.14485
C          C       0.33185   0.05445   0.28620
C          C       0.94555   0.27740   0.28620
C          C       0.72260   0.66815   0.28620
H          H       0.67576   0.77127   0.07983
H          H       0.22873   0.90449   0.07983
H          H       0.09551   0.32424   0.07983
C          C       0.32187   0.00008   0.19946
C          C       0.99992   0.32179   0.19946
C          C       0.67821   0.67813   0.19946
H          H       0.64983   0.77829   0.28245
H          H       0.22171   0.87154   0.28245
H          H       0.12846   0.35017   0.28245
N          N       0.28254   0.94889   0.29003
N          N       0.05111   0.33365   0.29003
N          N       0.66635   0.71746   0.29003
Cl         Cl      0.65564   0.75438   0.42984
Cl         Cl      0.24562   0.90126   0.42984
Cl         Cl      0.09874   0.34436   0.42984
C          C       0.23898   0.95730   0.35130
C          C       0.04270   0.28168   0.35130
C          C       0.71832   0.76102   0.35130
N          N       0.19204   0.10598   0.83412
N          N       0.89402   0.08606   0.83412
N          N       0.91394   0.80796   0.83412
C          C       0.31624   0.93188   0.88098
C          C       0.06812   0.38436   0.88098
C          C       0.61564   0.68376   0.88098
C          C       0.23053   0.15693   0.83882
C          C       0.84307   0.07360   0.83882
C          C       0.92640   0.76947   0.83882
C          C       0.64949   0.74994   0.68694
C          C       0.25006   0.89955   0.68694
C          C       0.10045   0.35051   0.68694
O          O       0.22194   0.19165   0.87361
O          O       0.80835   0.03029   0.87361
O          O       0.96971   0.77806   0.87361
H          H       0.20148   0.07872   0.81445
H          H       0.92128   0.12276   0.81445
H          H       0.87724   0.79852   0.81445
C          C       0.28329   0.16474   0.80300
C          C       0.83526   0.11855   0.80300
C          C       0.88145   0.71671   0.80300
H          H       0.25717   0.08748   0.70047
H          H       0.91252   0.16969   0.70047
H          H       0.83031   0.74283   0.70047
C          C       0.29015   0.12542   0.73474
C          C       0.87458   0.16473   0.73474
C          C       0.83527   0.70985   0.73474
H          H       0.40837   0.25691   0.84203
H          H       0.74309   0.15146   0.84203
H          H       0.84854   0.59163   0.84203
C          C       0.33866   0.13167   0.70671
C          C       0.86833   0.20699   0.70671
C          C       0.79301   0.66134   0.70671
H          H       0.12246   0.01111   0.84449
H          H       0.98889   0.11135   0.84449
H          H       0.88865   0.87754   0.84449
C          C       0.38227   0.17938   0.74220
C          C       0.82062   0.20289   0.74220
C          C       0.79711   0.61773   0.74220
H          H       0.05946   0.09469   0.85103
H          H       0.90531   0.96477   0.85103
H          H       0.03523   0.94054   0.85103
C          C       0.37534   0.21885   0.80920
C          C       0.78115   0.15649   0.80920
C          C       0.84351   0.62466   0.80920
H          H       0.46561   0.26457   0.74169
H          H       0.73543   0.20104   0.74169
H          H       0.79896   0.53439   0.74169
C          C       0.32672   0.21235   0.84111
C          C       0.78765   0.11437   0.84111
C          C       0.88563   0.67328   0.84111
H          H       0.54834   0.33139   0.72487
H          H       0.66861   0.21695   0.72487
H          H       0.78305   0.45166   0.72487
C          C       0.43486   0.18635   0.70910
C          C       0.81365   0.24851   0.70910
C          C       0.75149   0.56514   0.70910
H          H       0.63760   0.39763   0.71522
H          H       0.60237   0.23997   0.71522
H          H       0.76003   0.36240   0.71522
N          N       0.14123   0.08866   0.85176
N          N       0.91134   0.05257   0.85176
N          N       0.94743   0.85877   0.85176
H          H       0.29230   0.24994   0.89344
H          H       0.75006   0.04236   0.89344
H          H       0.95764   0.70770   0.89344
C          C       0.10935   0.03946   0.84939
C          C       0.96054   0.06989   0.84939
C          C       0.93011   0.89065   0.84939
H          H       0.30007   0.05142   0.86904
H          H       0.94858   0.24865   0.86904
H          H       0.75135   0.69993   0.86904
C          C       0.05416   0.02021   0.85158
C          C       0.97979   0.03395   0.85158
C          C       0.96605   0.94584   0.85158
H          H       0.36588   0.07055   0.87585
H          H       0.92945   0.29533   0.87585
H          H       0.70467   0.63412   0.87585
C          C       0.03296   0.05261   0.85181
C          C       0.94739   0.98035   0.85181
C          C       0.01965   0.96704   0.85181
H          H       0.35964   0.00227   0.69210
H          H       0.99773   0.35737   0.69210
H          H       0.64263   0.64036   0.69210
O          O       0.44346   0.15170   0.67300
O          O       0.84830   0.29176   0.67300
O          O       0.70824   0.55654   0.67300
H          H       0.31019   0.00091   0.56309
H          H       0.99909   0.30928   0.56309
H          H       0.69072   0.68981   0.56309
N          N       0.47423   0.23682   0.72018
N          N       0.76318   0.23741   0.72018
N          N       0.76259   0.52577   0.72018
H          H       0.20251   0.92119   0.87446
H          H       0.07881   0.28132   0.87446
H          H       0.71868   0.79749   0.87446
N          N       0.52483   0.25256   0.70732
N          N       0.74744   0.27227   0.70732
N          N       0.72773   0.47517   0.70732
H          H       0.23158   0.97602   0.73713
H          H       0.02398   0.25556   0.73713
H          H       0.74444   0.76842   0.73713
C          C       0.55883   0.30109   0.71612
C          C       0.69891   0.25774   0.71612
C          C       0.74226   0.44117   0.71612
H          H       0.24718   0.98218   0.96734
H          H       0.01782   0.26500   0.96734
H          H       0.73500   0.75282   0.96734
C          C       0.61321   0.31670   0.71477
C          C       0.68330   0.29651   0.71477
C          C       0.70349   0.38679   0.71477
H          H       0.34284   0.93314   0.77579
H          H       0.06686   0.40970   0.77579
H          H       0.59030   0.65716   0.77579
C          C       0.65047   0.36905   0.71469
C          C       0.63095   0.28142   0.71469
C          C       0.71858   0.34953   0.71469
H          H       0.29457   0.89131   0.91954
H          H       0.10869   0.40326   0.91954
H          H       0.59674   0.70543   0.91954
O          O       0.32544   0.25379   0.91193
O          O       0.74621   0.07165   0.91193
O          O       0.92835   0.67456   0.91193
H          H       0.34026   0.95697   0.98706
H          H       0.04303   0.38329   0.98706
H          H       0.61671   0.65974   0.98706
O          O       0.34160   0.08989   0.64275
O          O       0.91011   0.25171   0.64275
O          O       0.74829   0.65840   0.64275
H          H       0.60939   0.72733   0.64485
H          H       0.27267   0.88206   0.64485
H          H       0.11794   0.39061   0.64485
C          C       0.33185   0.05445   0.78620
C          C       0.94555   0.27740   0.78620
C          C       0.72260   0.66815   0.78620
H          H       0.67576   0.77127   0.57983
H          H       0.22873   0.90449   0.57983
H          H       0.09551   0.32424   0.57983
C          C       0.32187   0.00008   0.69946
C          C       0.99992   0.32179   0.69946
C          C       0.67821   0.67813   0.69946
H          H       0.64983   0.77829   0.78245
H          H       0.22171   0.87154   0.78245
H          H       0.12846   0.35017   0.78245
N          N       0.28254   0.94889   0.79003
N          N       0.05111   0.33365   0.79003
N          N       0.66635   0.71746   0.79003
Cl         Cl      0.65564   0.75438   0.92985
Cl         Cl      0.24562   0.90126   0.92985
Cl         Cl      0.09874   0.34436   0.92985
C          C       0.23898   0.95730   0.85131
C          C       0.04270   0.28168   0.85131
C          C       0.71832   0.76102   0.85131
