data_crystal

_cell_length_a    30.22400
_cell_length_b    30.22400
_cell_length_c    7.74600
_cell_angle_alpha 90.00000
_cell_angle_beta  90.00000
_cell_angle_gamma 120.00000

_symmetry_space_group_name_Hall 'P 1'
_symmetry_space_group_name_H-M  'P 1'

loop_
_symmetry_equiv_pos_as_xyz
 'x,y,z'

loop_
_atom_site_label
_atom_site_type_symbol
_atom_site_fract_x
_atom_site_fract_y
_atom_site_fract_z
N          N       0.19292   0.09559   0.06348
N          N       0.90441   0.09733   0.06348
N          N       0.90267   0.80708   0.06348
C          C       0.24296   0.82754   0.35972
C          C       0.17246   0.41542   0.35972
C          C       0.58458   0.75704   0.35972
C          C       0.22735   0.14452   0.11182
C          C       0.85548   0.08283   0.11182
C          C       0.91717   0.77265   0.11182
C          C       0.21051   0.37835   0.01704
C          C       0.62165   0.83216   0.01704
C          C       0.16784   0.78949   0.01704
O          O       0.21358   0.17601   0.12685
O          O       0.82399   0.03757   0.12685
O          O       0.96243   0.78642   0.12685
H          H       0.20519   0.06925   0.04212
H          H       0.93075   0.13594   0.04212
H          H       0.86406   0.79481   0.04212
C          C       0.28127   0.15949   0.14663
C          C       0.84051   0.12178   0.14663
C          C       0.87822   0.71873   0.14663
H          H       0.26088   0.08858   0.26984
H          H       0.91142   0.17230   0.26984
H          H       0.82770   0.73912   0.26984
C          C       0.29240   0.12470   0.22782
C          C       0.87530   0.16770   0.22782
C          C       0.83230   0.70760   0.22782
H          H       0.40282   0.25672   0.08466
H          H       0.74328   0.14610   0.08466
H          H       0.85390   0.59718   0.08466
C          C       0.34329   0.13631   0.25488
C          C       0.86369   0.20698   0.25488
C          C       0.79302   0.65671   0.25488
H          H       0.11916   0.00476   0.49614
H          H       0.99524   0.11440   0.49614
H          H       0.88560   0.88084   0.49614
C          C       0.38341   0.18474   0.20457
C          C       0.81526   0.19867   0.20457
C          C       0.80133   0.61659   0.20457
H          H       0.06322   0.09283   0.00107
H          H       0.90717   0.97039   0.00107
H          H       0.02961   0.93678   0.00107
C          C       0.37212   0.22001   0.12741
C          C       0.77999   0.15211   0.12741
C          C       0.84789   0.62788   0.12741
H          H       0.46307   0.27450   0.29972
H          H       0.72550   0.18857   0.29972
H          H       0.81143   0.53693   0.29972
C          C       0.32148   0.20771   0.09756
C          C       0.79229   0.11377   0.09756
C          C       0.88623   0.67852   0.09756
H          H       0.55133   0.33656   0.33583
H          H       0.66344   0.21477   0.33583
H          H       0.78523   0.44867   0.33583
C          C       0.43747   0.19851   0.22885
C          C       0.80149   0.23896   0.22885
C          C       0.76104   0.56253   0.22885
H          H       0.64255   0.40071   0.32738
H          H       0.59929   0.24184   0.32738
H          H       0.75816   0.35745   0.32738
N          N       0.14100   0.08008   0.04421
N          N       0.91992   0.06092   0.04421
N          N       0.93908   0.85900   0.04421
H          H       0.34244   0.27563   0.48093
H          H       0.72437   0.06681   0.48093
H          H       0.93319   0.65756   0.48093
C          C       0.10735   0.03307   0.00958
C          C       0.96693   0.07428   0.00958
C          C       0.92572   0.89265   0.00958
H          H       0.29036   0.03225   0.27198
H          H       0.96775   0.25811   0.27198
H          H       0.74189   0.70964   0.27198
C          C       0.05257   0.01662   0.49983
C          C       0.98338   0.03595   0.49983
C          C       0.96405   0.94743   0.49983
H          H       0.29278   0.05671   0.48596
H          H       0.94329   0.23607   0.48596
H          H       0.76393   0.70722   0.48596
C          C       0.03570   0.05229   0.49891
C          C       0.94771   0.98341   0.49891
C          C       0.01659   0.96430   0.49891
H          H       0.36849   0.04369   0.04523
H          H       0.95631   0.32480   0.04523
H          H       0.67520   0.63151   0.04523
O          O       0.44985   0.16618   0.20696
O          O       0.83382   0.28367   0.20696
O          O       0.71633   0.55015   0.20696
H          H       0.35789   0.01187   0.34341
H          H       0.98813   0.34602   0.34341
H          H       0.65398   0.64211   0.34341
N          N       0.47366   0.24706   0.27452
N          N       0.75294   0.22660   0.27452
N          N       0.77340   0.52634   0.27452
H          H       0.30377   0.92419   0.37267
H          H       0.07581   0.37958   0.37267
H          H       0.62042   0.69623   0.37267
N          N       0.52512   0.26025   0.28864
N          N       0.73975   0.26487   0.28864
N          N       0.73513   0.47488   0.28864
H          H       0.26003   0.94685   0.31101
H          H       0.05315   0.31318   0.31101
H          H       0.68682   0.73997   0.31101
C          C       0.56085   0.30662   0.32089
C          C       0.69338   0.25423   0.32089
C          C       0.74577   0.43915   0.32089
H          H       0.20501   0.90764   0.03002
H          H       0.09236   0.29737   0.03002
H          H       0.70263   0.79499   0.03002
C          C       0.61486   0.31985   0.32811
C          C       0.68015   0.29501   0.32811
C          C       0.70499   0.38514   0.32811
H          H       0.24225   0.88689   0.13257
H          H       0.11311   0.35536   0.13257
H          H       0.64464   0.75775   0.13257
C          C       0.65319   0.37138   0.32886
C          C       0.62862   0.28181   0.32886
C          C       0.71819   0.34681   0.32886
H          H       0.17290   0.87819   0.25467
H          H       0.12181   0.29471   0.25467
H          H       0.70529   0.82710   0.25467
O          O       0.31085   0.24240   0.01410
O          O       0.75760   0.06845   0.01410
O          O       0.93155   0.68915   0.01410
H          H       0.13610   0.84818   0.41492
H          H       0.15182   0.28792   0.41492
H          H       0.71208   0.86390   0.41492
O          O       0.35598   0.10150   0.33039
O          O       0.89850   0.25448   0.33039
O          O       0.74552   0.64402   0.33039
H          H       0.12999   0.80727   0.26933
H          H       0.19273   0.32272   0.26933
H          H       0.67728   0.87001   0.26933
C          C       0.31569   0.05237   0.38264
C          C       0.94763   0.26332   0.38264
C          C       0.73668   0.68431   0.38264
H          H       0.26884   0.85000   0.25629
H          H       0.15000   0.41884   0.25629
H          H       0.58116   0.73116   0.25629
C          C       0.33840   0.02043   0.44948
C          C       0.97957   0.31797   0.44948
C          C       0.68203   0.66160   0.44948
H          H       0.23094   0.78721   0.32769
H          H       0.21279   0.44373   0.32769
H          H       0.55627   0.76906   0.32769
O          O       0.30065   0.97607   0.03454
O          O       0.02393   0.32458   0.03454
O          O       0.67542   0.69935   0.03454
H          H       0.26977   0.83444   0.46808
H          H       0.16556   0.43533   0.46808
H          H       0.56467   0.73023   0.46808
C          C       0.27556   0.93473   0.41847
C          C       0.06527   0.34083   0.41847
C          C       0.65917   0.72444   0.41847
H          H       0.24448   0.40230   0.43447
H          H       0.59770   0.84218   0.43447
H          H       0.15782   0.75552   0.43447
C          C       0.22919   0.88992   0.01055
C          C       0.11008   0.33927   0.01055
C          C       0.66073   0.77081   0.01055
H          H       0.22041   0.34810   0.03946
H          H       0.65190   0.87231   0.03946
H          H       0.12769   0.77959   0.03946
N          N       0.20146   0.83835   0.42130
N          N       0.16165   0.36311   0.42130
N          N       0.63689   0.79854   0.42130
H          H       0.21681   0.40176   0.12840
H          H       0.59824   0.81505   0.12840
H          H       0.18495   0.78319   0.12840
C          C       0.16115   0.84261   0.32163
C          C       0.15739   0.31854   0.32163
C          C       0.68146   0.83885   0.32163
Cl         Cl      0.60800   0.83849   0.22037
Cl         Cl      0.16151   0.76951   0.22037
Cl         Cl      0.23049   0.39200   0.22037
N          N       0.19292   0.09559   0.56347
N          N       0.90441   0.09733   0.56347
N          N       0.90267   0.80708   0.56347
C          C       0.24296   0.82754   0.85972
C          C       0.17246   0.41542   0.85972
C          C       0.58458   0.75704   0.85972
C          C       0.22735   0.14452   0.61182
C          C       0.85548   0.08283   0.61182
C          C       0.91717   0.77265   0.61182
C          C       0.21051   0.37835   0.51704
C          C       0.62165   0.83216   0.51704
C          C       0.16784   0.78949   0.51704
O          O       0.21358   0.17601   0.62685
O          O       0.82399   0.03757   0.62685
O          O       0.96243   0.78642   0.62685
H          H       0.20519   0.06925   0.54212
H          H       0.93075   0.13594   0.54212
H          H       0.86406   0.79481   0.54212
C          C       0.28127   0.15949   0.64663
C          C       0.84051   0.12178   0.64663
C          C       0.87822   0.71873   0.64663
H          H       0.26088   0.08858   0.76984
H          H       0.91142   0.17230   0.76984
H          H       0.82770   0.73912   0.76984
C          C       0.29240   0.12470   0.72782
C          C       0.87530   0.16770   0.72782
C          C       0.83230   0.70760   0.72782
H          H       0.40282   0.25672   0.58466
H          H       0.74328   0.14610   0.58466
H          H       0.85390   0.59718   0.58466
C          C       0.34329   0.13631   0.75488
C          C       0.86369   0.20698   0.75488
C          C       0.79302   0.65671   0.75488
H          H       0.11916   0.00476   0.99614
H          H       0.99524   0.11440   0.99614
H          H       0.88560   0.88084   0.99614
C          C       0.38341   0.18474   0.70457
C          C       0.81526   0.19867   0.70457
C          C       0.80133   0.61659   0.70457
H          H       0.06322   0.09283   0.50107
H          H       0.90717   0.97039   0.50107
H          H       0.02961   0.93678   0.50107
C          C       0.37212   0.22001   0.62741
C          C       0.77999   0.15211   0.62741
C          C       0.84789   0.62788   0.62741
H          H       0.46307   0.27450   0.79971
H          H       0.72550   0.18857   0.79971
H          H       0.81143   0.53693   0.79971
C          C       0.32148   0.20771   0.59756
C          C       0.79229   0.11377   0.59756
C          C       0.88623   0.67852   0.59756
H          H       0.55133   0.33656   0.83583
H          H       0.66344   0.21477   0.83583
H          H       0.78523   0.44867   0.83583
C          C       0.43747   0.19851   0.72886
C          C       0.80149   0.23896   0.72886
C          C       0.76104   0.56253   0.72886
H          H       0.64255   0.40071   0.82738
H          H       0.59929   0.24184   0.82738
H          H       0.75816   0.35745   0.82738
N          N       0.14100   0.08008   0.54420
N          N       0.91992   0.06092   0.54420
N          N       0.93908   0.85900   0.54420
H          H       0.34244   0.27563   0.98093
H          H       0.72437   0.06681   0.98093
H          H       0.93319   0.65756   0.98093
C          C       0.10735   0.03307   0.50958
C          C       0.96693   0.07428   0.50958
C          C       0.92572   0.89265   0.50958
H          H       0.29036   0.03225   0.77199
H          H       0.96775   0.25811   0.77199
H          H       0.74189   0.70964   0.77199
C          C       0.05257   0.01662   0.99983
C          C       0.98338   0.03595   0.99983
C          C       0.96405   0.94743   0.99983
H          H       0.29278   0.05671   0.98596
H          H       0.94329   0.23607   0.98596
H          H       0.76393   0.70722   0.98596
C          C       0.03570   0.05229   0.99891
C          C       0.94771   0.98341   0.99891
C          C       0.01659   0.96430   0.99891
H          H       0.36849   0.04369   0.54523
H          H       0.95631   0.32480   0.54523
H          H       0.67520   0.63151   0.54523
O          O       0.44985   0.16618   0.70696
O          O       0.83382   0.28367   0.70696
O          O       0.71633   0.55015   0.70696
H          H       0.35789   0.01187   0.84341
H          H       0.98813   0.34602   0.84341
H          H       0.65398   0.64211   0.84341
N          N       0.47366   0.24706   0.77452
N          N       0.75294   0.22660   0.77452
N          N       0.77340   0.52634   0.77452
H          H       0.30377   0.92419   0.87266
H          H       0.07581   0.37958   0.87266
H          H       0.62042   0.69623   0.87266
N          N       0.52512   0.26025   0.78864
N          N       0.73975   0.26487   0.78864
N          N       0.73513   0.47488   0.78864
H          H       0.26003   0.94685   0.81101
H          H       0.05315   0.31318   0.81101
H          H       0.68682   0.73997   0.81101
C          C       0.56085   0.30662   0.82089
C          C       0.69338   0.25423   0.82089
C          C       0.74577   0.43915   0.82089
H          H       0.20501   0.90764   0.53002
H          H       0.09236   0.29737   0.53002
H          H       0.70263   0.79499   0.53002
C          C       0.61486   0.31985   0.82811
C          C       0.68015   0.29501   0.82811
C          C       0.70499   0.38514   0.82811
H          H       0.24225   0.88689   0.63257
H          H       0.11311   0.35536   0.63257
H          H       0.64464   0.75775   0.63257
C          C       0.65319   0.37138   0.82886
C          C       0.62862   0.28181   0.82886
C          C       0.71819   0.34681   0.82886
H          H       0.17290   0.87819   0.75467
H          H       0.12181   0.29471   0.75467
H          H       0.70529   0.82710   0.75467
O          O       0.31085   0.24240   0.51411
O          O       0.75760   0.06845   0.51411
O          O       0.93155   0.68915   0.51411
H          H       0.13610   0.84818   0.91492
H          H       0.15182   0.28792   0.91492
H          H       0.71208   0.86390   0.91492
O          O       0.35598   0.10150   0.83039
O          O       0.89850   0.25448   0.83039
O          O       0.74552   0.64402   0.83039
H          H       0.12999   0.80727   0.76933
H          H       0.19273   0.32272   0.76933
H          H       0.67728   0.87001   0.76933
C          C       0.31569   0.05237   0.88264
C          C       0.94763   0.26332   0.88264
C          C       0.73668   0.68431   0.88264
H          H       0.26884   0.85000   0.75629
H          H       0.15000   0.41884   0.75629
H          H       0.58116   0.73116   0.75629
C          C       0.33840   0.02043   0.94948
C          C       0.97957   0.31797   0.94948
C          C       0.68203   0.66160   0.94948
H          H       0.23094   0.78721   0.82769
H          H       0.21279   0.44373   0.82769
H          H       0.55627   0.76906   0.82769
O          O       0.30065   0.97607   0.53454
O          O       0.02393   0.32458   0.53454
O          O       0.67542   0.69935   0.53454
H          H       0.26977   0.83444   0.96808
H          H       0.16556   0.43533   0.96808
H          H       0.56467   0.73023   0.96808
C          C       0.27556   0.93473   0.91847
C          C       0.06527   0.34083   0.91847
C          C       0.65917   0.72444   0.91847
H          H       0.24448   0.40230   0.93447
H          H       0.59770   0.84218   0.93447
H          H       0.15782   0.75552   0.93447
C          C       0.22919   0.88992   0.51055
C          C       0.11008   0.33927   0.51055
C          C       0.66073   0.77081   0.51055
H          H       0.22041   0.34810   0.53946
H          H       0.65190   0.87231   0.53946
H          H       0.12769   0.77959   0.53946
N          N       0.20146   0.83835   0.92130
N          N       0.16165   0.36311   0.92130
N          N       0.63689   0.79854   0.92130
H          H       0.21681   0.40176   0.62840
H          H       0.59824   0.81505   0.62840
H          H       0.18495   0.78319   0.62840
C          C       0.16115   0.84261   0.82163
C          C       0.15739   0.31854   0.82163
C          C       0.68146   0.83885   0.82163
Cl         Cl      0.60800   0.83849   0.72037
Cl         Cl      0.16151   0.76951   0.72037
Cl         Cl      0.23049   0.39200   0.72037
