data_crystal

_cell_length_a    29.98400
_cell_length_b    29.98400
_cell_length_c    7.78200
_cell_angle_alpha 90.00000
_cell_angle_beta  90.00000
_cell_angle_gamma 120.00000

_space_group_name_Hall 'P 1'
_space_group_name_H-M_alt  'P 1'

loop_
_symmetry_equiv_pos_as_xyz
'x,y,z'

loop_
_atom_site_label
_atom_site_type_symbol
_atom_site_fract_x
_atom_site_fract_y
_atom_site_fract_z
N          N       0.19344   0.09386   0.48111
N          N       0.90614   0.09958   0.48111
N          N       0.90042   0.80656   0.48111
C          C       0.67933   0.80093   0.31263
C          C       0.19907   0.87840   0.31263
C          C       0.12160   0.32067   0.31263
C          C       0.23273   0.14646   0.46363
C          C       0.85354   0.08627   0.46363
C          C       0.91373   0.76727   0.46363
H          H       0.20357   0.06298   0.47646
H          H       0.93702   0.14059   0.47646
H          H       0.85941   0.79643   0.47646
O          O       0.22312   0.18054   0.49654
O          O       0.81946   0.04258   0.49654
O          O       0.95742   0.77688   0.49654
H          H       0.25641   0.07786   0.33325
H          H       0.92214   0.17855   0.33325
H          H       0.82145   0.74359   0.33325
C          C       0.28428   0.15880   0.40246
C          C       0.84120   0.12548   0.40246
C          C       0.87452   0.71572   0.40246
H          H       0.40877   0.25887   0.35053
H          H       0.74113   0.14990   0.35053
H          H       0.85010   0.59123   0.35053
C          C       0.29056   0.11880   0.33736
C          C       0.88120   0.17176   0.33736
C          C       0.82824   0.70944   0.33736
H          H       0.11890   0.00133   0.01700
H          H       0.99867   0.11757   0.01700
H          H       0.88243   0.88110   0.01700
C          C       0.33830   0.12741   0.27572
C          C       0.87259   0.21089   0.27572
C          C       0.78911   0.66170   0.27572
H          H       0.06577   0.09541   0.02980
H          H       0.90459   0.97036   0.02980
H          H       0.02964   0.93423   0.02980
C          C       0.38109   0.17780   0.28225
C          C       0.82220   0.20329   0.28225
C          C       0.79671   0.61891   0.28225
H          H       0.46348   0.27397   0.22228
H          H       0.72603   0.18951   0.22228
H          H       0.81049   0.53652   0.22228
C          C       0.37463   0.21792   0.34614
C          C       0.78208   0.15671   0.34614
C          C       0.84329   0.62537   0.34614
H          H       0.54918   0.33496   0.18739
H          H       0.66504   0.21422   0.18739
H          H       0.78578   0.45082   0.18739
C          C       0.32698   0.20901   0.40526
C          C       0.79099   0.11797   0.40526
C          C       0.88203   0.67302   0.40526
H          H       0.63933   0.40086   0.17410
H          H       0.59914   0.23847   0.17410
H          H       0.76153   0.36067   0.17410
C          C       0.43309   0.19018   0.22523
C          C       0.80982   0.24291   0.22523
C          C       0.75709   0.56691   0.22523
H          H       0.36221   0.28262   0.49250
H          H       0.71738   0.07959   0.49250
H          H       0.92041   0.63779   0.49250
N          N       0.14194   0.08013   0.00421
N          N       0.91987   0.06181   0.00421
N          N       0.93819   0.85806   0.00421
H          H       0.27763   0.04947   0.05878
H          H       0.95053   0.22816   0.05878
H          H       0.77184   0.72237   0.05878
C          C       0.10722   0.03214   0.01695
C          C       0.96786   0.07508   0.01695
C          C       0.92492   0.89278   0.01695
H          H       0.27142   0.02700   0.28510
H          H       0.97300   0.24442   0.28510
H          H       0.75558   0.72858   0.28510
C          C       0.05265   0.01623   0.03148
C          C       0.98377   0.03642   0.03148
C          C       0.96358   0.94735   0.03148
H          H       0.32347   0.98663   0.22736
H          H       0.01337   0.33684   0.22736
H          H       0.66316   0.67653   0.22736
C          C       0.03623   0.05251   0.03084
C          C       0.94749   0.98372   0.03084
C          C       0.01628   0.96377   0.03084
H          H       0.34155   0.01660   0.01033
H          H       0.98340   0.32495   0.01033
H          H       0.67505   0.65845   0.01033
O          O       0.44256   0.15612   0.19046
O          O       0.84388   0.28644   0.19046
O          O       0.71356   0.55744   0.19046
H          H       0.22819   0.94359   0.12834
H          H       0.05641   0.28460   0.12834
H          H       0.71540   0.77181   0.12834
N          N       0.47304   0.24272   0.21440
N          N       0.75728   0.23032   0.21440
N          N       0.76968   0.52696   0.21440
H          H       0.25300   0.96624   0.40737
H          H       0.03376   0.28676   0.40737
H          H       0.71324   0.74700   0.40737
N          N       0.52443   0.25570   0.19386
N          N       0.74430   0.26873   0.19386
N          N       0.73127   0.47557   0.19386
H          H       0.27422   0.89508   0.14664
H          H       0.10492   0.37914   0.14664
H          H       0.62086   0.72578   0.14664
C          C       0.55995   0.30349   0.18523
C          C       0.69651   0.25646   0.18523
C          C       0.74354   0.44005   0.18523
H          H       0.30883   0.92270   0.44292
H          H       0.07730   0.38613   0.44292
H          H       0.61387   0.69117   0.44292
C          C       0.61428   0.31826   0.17260
C          C       0.68174   0.29602   0.17260
C          C       0.70398   0.38572   0.17260
H          H       0.25070   0.84809   0.17211
H          H       0.15191   0.40261   0.17211
H          H       0.59739   0.74930   0.17211
C          C       0.65153   0.37044   0.17317
C          C       0.62956   0.28109   0.17317
C          C       0.71891   0.34847   0.17317
H          H       0.24760   0.80603   0.35307
H          H       0.19397   0.44157   0.35307
H          H       0.55843   0.75240   0.35307
O          O       0.32309   0.24957   0.46789
O          O       0.75043   0.07352   0.46789
O          O       0.92648   0.67691   0.46789
H          H       0.30266   0.87310   0.33690
H          H       0.12690   0.42956   0.33690
H          H       0.57044   0.69734   0.33690
O          O       0.34426   0.08691   0.21077
O          O       0.91309   0.25735   0.21077
O          O       0.74265   0.65574   0.21077
H          H       0.21468   0.79708   0.04969
H          H       0.20292   0.41760   0.04969
H          H       0.58240   0.78532   0.04969
C          C       0.29775   0.04111   0.16795
C          C       0.95889   0.25664   0.16795
C          C       0.74336   0.70225   0.16795
H          H       0.15900   0.79727   0.44460
H          H       0.20273   0.36173   0.44460
H          H       0.63827   0.84100   0.44460
C          C       0.30991   0.00007   0.11185
C          C       0.99993   0.30984   0.11185
C          C       0.69016   0.69009   0.11185
H          H       0.18752   0.83554   0.14362
H          H       0.16446   0.35198   0.14362
H          H       0.64802   0.81248   0.14362
C          C       0.26197   0.95496   0.03726
C          C       0.04504   0.30701   0.03726
C          C       0.69299   0.73803   0.03726
H          H       0.66692   0.80717   0.18055
H          H       0.19283   0.85975   0.18055
H          H       0.14025   0.33308   0.18055
C          C       0.27099   0.90937   0.01402
C          C       0.09063   0.36162   0.01402
C          C       0.63838   0.72901   0.01402
H          H       0.70324   0.78124   0.29751
H          H       0.21876   0.92200   0.29751
H          H       0.07800   0.29676   0.29751
N          N       0.23140   0.86531   0.41583
N          N       0.13469   0.36609   0.41583
N          N       0.63391   0.76860   0.41583
H          H       0.70339   0.83969   0.37900
H          H       0.16031   0.86370   0.37900
H          H       0.13630   0.29661   0.37900
C          C       0.25959   0.84717   0.31405
C          C       0.15283   0.41242   0.31405
C          C       0.58758   0.74041   0.31405
Cl         Cl      0.60762   0.81134   0.27617
Cl         Cl      0.18866   0.79628   0.27617
Cl         Cl      0.20372   0.39238   0.27617
C          C       0.19628   0.82147   0.01892
C          C       0.17853   0.37481   0.01892
C          C       0.62519   0.80372   0.01892
N          N       0.19344   0.09386   0.98111
N          N       0.90614   0.09958   0.98111
N          N       0.90042   0.80656   0.98111
C          C       0.67933   0.80093   0.81263
C          C       0.19907   0.87840   0.81263
C          C       0.12160   0.32067   0.81263
C          C       0.23273   0.14646   0.96363
C          C       0.85354   0.08627   0.96363
C          C       0.91373   0.76727   0.96363
H          H       0.20357   0.06298   0.97646
H          H       0.93702   0.14059   0.97646
H          H       0.85941   0.79643   0.97646
O          O       0.22312   0.18054   0.99654
O          O       0.81946   0.04258   0.99654
O          O       0.95742   0.77688   0.99654
H          H       0.25641   0.07786   0.83325
H          H       0.92214   0.17855   0.83325
H          H       0.82145   0.74359   0.83325
C          C       0.28428   0.15880   0.90246
C          C       0.84120   0.12548   0.90246
C          C       0.87452   0.71572   0.90246
H          H       0.40877   0.25887   0.85053
H          H       0.74113   0.14990   0.85053
H          H       0.85010   0.59123   0.85053
C          C       0.29056   0.11880   0.83735
C          C       0.88120   0.17176   0.83735
C          C       0.82824   0.70944   0.83735
H          H       0.11890   0.00133   0.51700
H          H       0.99867   0.11757   0.51700
H          H       0.88243   0.88110   0.51700
C          C       0.33830   0.12741   0.77572
C          C       0.87259   0.21089   0.77572
C          C       0.78911   0.66170   0.77572
H          H       0.06577   0.09541   0.52980
H          H       0.90459   0.97036   0.52980
H          H       0.02964   0.93423   0.52980
C          C       0.38109   0.17780   0.78225
C          C       0.82220   0.20329   0.78225
C          C       0.79671   0.61891   0.78225
H          H       0.46348   0.27397   0.72228
H          H       0.72603   0.18951   0.72228
H          H       0.81049   0.53652   0.72228
C          C       0.37463   0.21792   0.84614
C          C       0.78208   0.15671   0.84614
C          C       0.84329   0.62537   0.84614
H          H       0.54918   0.33496   0.68739
H          H       0.66504   0.21422   0.68739
H          H       0.78578   0.45082   0.68739
C          C       0.32698   0.20901   0.90526
C          C       0.79099   0.11797   0.90526
C          C       0.88203   0.67302   0.90526
H          H       0.63933   0.40086   0.67410
H          H       0.59914   0.23847   0.67410
H          H       0.76153   0.36067   0.67410
C          C       0.43309   0.19018   0.72523
C          C       0.80982   0.24291   0.72523
C          C       0.75709   0.56691   0.72523
H          H       0.36221   0.28262   0.99250
H          H       0.71738   0.07959   0.99250
H          H       0.92041   0.63779   0.99250
N          N       0.14194   0.08013   0.50421
N          N       0.91987   0.06181   0.50421
N          N       0.93819   0.85806   0.50421
H          H       0.27763   0.04947   0.55878
H          H       0.95053   0.22816   0.55878
H          H       0.77184   0.72237   0.55878
C          C       0.10722   0.03214   0.51694
C          C       0.96786   0.07508   0.51694
C          C       0.92492   0.89278   0.51694
H          H       0.27142   0.02700   0.78510
H          H       0.97300   0.24442   0.78510
H          H       0.75558   0.72858   0.78510
C          C       0.05265   0.01623   0.53148
C          C       0.98377   0.03642   0.53148
C          C       0.96358   0.94735   0.53148
H          H       0.32347   0.98663   0.72736
H          H       0.01337   0.33684   0.72736
H          H       0.66316   0.67653   0.72736
C          C       0.03623   0.05251   0.53084
C          C       0.94749   0.98372   0.53084
C          C       0.01628   0.96377   0.53084
H          H       0.34155   0.01660   0.51033
H          H       0.98340   0.32495   0.51033
H          H       0.67505   0.65845   0.51033
O          O       0.44256   0.15612   0.69046
O          O       0.84388   0.28644   0.69046
O          O       0.71356   0.55744   0.69046
H          H       0.22819   0.94359   0.62834
H          H       0.05641   0.28460   0.62834
H          H       0.71540   0.77181   0.62834
N          N       0.47304   0.24272   0.71440
N          N       0.75728   0.23032   0.71440
N          N       0.76968   0.52696   0.71440
H          H       0.25300   0.96624   0.90737
H          H       0.03376   0.28676   0.90737
H          H       0.71324   0.74700   0.90737
N          N       0.52443   0.25570   0.69386
N          N       0.74430   0.26873   0.69386
N          N       0.73127   0.47557   0.69386
H          H       0.27422   0.89508   0.64664
H          H       0.10492   0.37914   0.64664
H          H       0.62086   0.72578   0.64664
C          C       0.55995   0.30349   0.68522
C          C       0.69651   0.25646   0.68522
C          C       0.74354   0.44005   0.68522
H          H       0.30883   0.92270   0.94292
H          H       0.07730   0.38613   0.94292
H          H       0.61387   0.69117   0.94292
C          C       0.61428   0.31826   0.67260
C          C       0.68174   0.29602   0.67260
C          C       0.70398   0.38572   0.67260
H          H       0.25070   0.84809   0.67211
H          H       0.15191   0.40261   0.67211
H          H       0.59739   0.74930   0.67211
C          C       0.65153   0.37044   0.67317
C          C       0.62956   0.28109   0.67317
C          C       0.71891   0.34847   0.67317
H          H       0.24760   0.80603   0.85307
H          H       0.19397   0.44157   0.85307
H          H       0.55843   0.75240   0.85307
O          O       0.32309   0.24957   0.96789
O          O       0.75043   0.07352   0.96789
O          O       0.92648   0.67691   0.96789
H          H       0.30266   0.87310   0.83690
H          H       0.12690   0.42956   0.83690
H          H       0.57044   0.69734   0.83690
O          O       0.34426   0.08691   0.71078
O          O       0.91309   0.25735   0.71078
O          O       0.74265   0.65574   0.71078
H          H       0.21468   0.79708   0.54969
H          H       0.20292   0.41760   0.54969
H          H       0.58240   0.78532   0.54969
C          C       0.29775   0.04111   0.66795
C          C       0.95889   0.25664   0.66795
C          C       0.74336   0.70225   0.66795
H          H       0.15900   0.79727   0.94460
H          H       0.20273   0.36173   0.94460
H          H       0.63827   0.84100   0.94460
C          C       0.30991   0.00007   0.61186
C          C       0.99993   0.30984   0.61186
C          C       0.69016   0.69009   0.61186
H          H       0.18752   0.83554   0.64362
H          H       0.16446   0.35198   0.64362
H          H       0.64802   0.81248   0.64362
C          C       0.26197   0.95496   0.53726
C          C       0.04504   0.30701   0.53726
C          C       0.69299   0.73803   0.53726
H          H       0.66692   0.80717   0.68055
H          H       0.19283   0.85975   0.68055
H          H       0.14025   0.33308   0.68055
C          C       0.27099   0.90937   0.51401
C          C       0.09063   0.36162   0.51401
C          C       0.63838   0.72901   0.51401
H          H       0.70324   0.78124   0.79751
H          H       0.21876   0.92200   0.79751
H          H       0.07800   0.29676   0.79751
N          N       0.23140   0.86531   0.91583
N          N       0.13469   0.36609   0.91583
N          N       0.63391   0.76860   0.91583
H          H       0.70339   0.83969   0.87900
H          H       0.16031   0.86370   0.87900
H          H       0.13630   0.29661   0.87900
C          C       0.25959   0.84717   0.81406
C          C       0.15283   0.41242   0.81406
C          C       0.58758   0.74041   0.81406
Cl         Cl      0.60762   0.81134   0.77617
Cl         Cl      0.18866   0.79628   0.77617
Cl         Cl      0.20372   0.39238   0.77617
C          C       0.19628   0.82147   0.51892
C          C       0.17853   0.37481   0.51892
C          C       0.62519   0.80372   0.51892
