data_crystal

_cell_length_a    30.77900
_cell_length_b    30.77900
_cell_length_c    8.66200
_cell_angle_alpha 90.00000
_cell_angle_beta  90.00000
_cell_angle_gamma 120.00000

_space_group_name_Hall 'P 1'
_space_group_name_H-M_alt  'P 1'

loop_
_symmetry_equiv_pos_as_xyz
'x,y,z'

loop_
_atom_site_label
_atom_site_type_symbol
_atom_site_fract_x
_atom_site_fract_y
_atom_site_fract_z
C          C       0.94938   0.98630   0.31581
C          C       0.01370   0.96308   0.31581
C          C       0.03692   0.05062   0.31581
H          H       0.91014   0.97600   0.31797
H          H       0.02400   0.93414   0.31797
H          H       0.06586   0.08986   0.31797
C          C       0.85931   0.71398   0.20447
C          C       0.28602   0.14533   0.20447
C          C       0.85467   0.14069   0.20447
H          H       0.73660   0.63615   0.08206
H          H       0.36385   0.10045   0.08206
H          H       0.89955   0.26340   0.08206
C          C       0.81157   0.69804   0.13216
C          C       0.30196   0.11353   0.13216
C          C       0.88647   0.18843   0.13216
H          H       0.90102   0.68744   0.32551
H          H       0.31256   0.21358   0.32551
H          H       0.78642   0.09898   0.32551
C          C       0.77256   0.64778   0.13795
C          C       0.35222   0.12478   0.13795
C          C       0.87522   0.22744   0.13795
H          H       0.86543   0.56866   0.01606
H          H       0.43134   0.29677   0.01606
H          H       0.70323   0.13457   0.01606
C          C       0.77923   0.61167   0.21544
C          C       0.38833   0.16756   0.21544
C          C       0.83244   0.22077   0.21544
H          H       0.90020   0.63405   0.48153
H          H       0.36595   0.26615   0.48153
H          H       0.73385   0.09980   0.48153
C          C       0.82583   0.62641   0.28466
C          C       0.37359   0.19942   0.28466
C          C       0.80058   0.17417   0.28466
H          H       0.91949   0.61543   0.21647
H          H       0.38457   0.30406   0.21647
H          H       0.69594   0.08051   0.21647
C          C       0.86528   0.67631   0.27375
C          C       0.32369   0.18897   0.27375
C          C       0.81103   0.13472   0.27375
H          H       0.87322   0.54840   0.24665
H          H       0.45160   0.32482   0.24665
H          H       0.67518   0.12678   0.24665
O          O       0.82867   0.59098   0.37774
O          O       0.40902   0.23769   0.37774
O          O       0.76231   0.17133   0.37774
H          H       0.92442   0.54471   0.45654
H          H       0.45529   0.37971   0.45654
H          H       0.62029   0.07558   0.45654
C          C       0.87556   0.59717   0.42649
C          C       0.40283   0.27839   0.42649
C          C       0.72161   0.12444   0.42649
H          H       0.96826   0.61145   0.43451
H          H       0.38855   0.35681   0.43451
H          H       0.64319   0.03174   0.43451
C          C       0.90199   0.58403   0.30029
C          C       0.41597   0.31796   0.30029
C          C       0.68204   0.09801   0.30029
H          H       0.83138   0.75948   0.00202
H          H       0.24052   0.07190   0.00202
H          H       0.92810   0.16862   0.00202
C          C       0.94249   0.57614   0.37227
C          C       0.42386   0.36635   0.37227
C          C       0.63365   0.05751   0.37227
H          H       0.78752   0.53400   0.13054
H          H       0.46600   0.25352   0.13054
H          H       0.74648   0.21248   0.13054
O          O       0.80083   0.72933   0.04675
O          O       0.27067   0.07150   0.04675
O          O       0.92850   0.19917   0.04675
H          H       0.77276   0.45305   0.14988
H          H       0.54695   0.31971   0.14988
H          H       0.68029   0.22724   0.14988
C          C       0.73908   0.55759   0.21658
C          C       0.44241   0.18149   0.21658
C          C       0.81851   0.26092   0.21658
H          H       0.63190   0.39063   0.17474
H          H       0.60937   0.24127   0.17474
H          H       0.75873   0.36810   0.17474
N          N       0.75156   0.52237   0.17383
N          N       0.47763   0.22919   0.17383
N          N       0.77081   0.24844   0.17383
H          H       0.85354   0.79717   0.24011
H          H       0.20283   0.05637   0.24011
H          H       0.94363   0.14646   0.24011
O          O       0.69517   0.54511   0.24813
O          O       0.45489   0.15006   0.24813
O          O       0.84994   0.30483   0.24813
H          H       0.88304   0.88528   0.31264
H          H       0.11472   0.99776   0.31264
H          H       0.00224   0.11696   0.31264
N          N       0.71769   0.47102   0.18835
N          N       0.52898   0.24667   0.18835
N          N       0.75333   0.28231   0.18835
H          H       0.98918   0.59292   0.16604
H          H       0.40708   0.39626   0.16604
H          H       0.60374   0.01082   0.16604
C          C       0.73342   0.43939   0.17161
C          C       0.56061   0.29403   0.17161
C          C       0.70597   0.26658   0.17161
H          H       0.94919   0.52638   0.20660
H          H       0.47362   0.42281   0.20660
H          H       0.57719   0.05081   0.20660
C          C       0.69897   0.38527   0.17618
C          C       0.61473   0.31370   0.17618
C          C       0.68630   0.30103   0.17618
H          H       0.00440   0.54945   0.46364
H          H       0.45055   0.45495   0.46364
H          H       0.54505   0.99560   0.46364
C          C       0.64710   0.36546   0.17558
C          C       0.63454   0.28164   0.17558
C          C       0.71836   0.35290   0.17558
H          H       0.04171   0.60822   0.37421
H          H       0.39178   0.43349   0.37421
H          H       0.56651   0.95829   0.37421
O          O       0.94519   0.77768   0.24199
O          O       0.22232   0.16751   0.24199
O          O       0.83249   0.05481   0.24199
H          H       0.07713   0.58348   0.21180
H          H       0.41652   0.49365   0.21180
H          H       0.50635   0.92287   0.21180
N          N       0.89137   0.80638   0.24498
N          N       0.19362   0.08499   0.24498
N          N       0.91501   0.10863   0.24498
H          H       0.02650   0.52078   0.18443
H          H       0.47922   0.50572   0.18443
H          H       0.49428   0.97350   0.18443
N          N       0.93022   0.85700   0.26786
N          N       0.14300   0.07322   0.26786
N          N       0.92678   0.06978   0.26786
H          H       0.02690   0.45060   0.36617
H          H       0.54940   0.57630   0.36617
H          H       0.42370   0.97310   0.36617
C          C       0.92157   0.89371   0.30001
C          C       0.10629   0.02786   0.30001
C          C       0.97214   0.07843   0.30001
H          H       0.00167   0.48039   0.46924
H          H       0.51961   0.52128   0.46924
H          H       0.47872   0.99833   0.46924
C          C       0.96235   0.94820   0.31256
C          C       0.05180   0.01415   0.31256
C          C       0.98585   0.03765   0.31256
H          H       0.05162   0.47362   0.04995
H          H       0.52638   0.57800   0.04995
H          H       0.42200   0.94838   0.04995
C          C       0.90193   0.76812   0.22668
C          C       0.23188   0.13381   0.22668
C          C       0.86619   0.09807   0.22668
H          H       0.10086   0.48811   0.22298
H          H       0.51189   0.61275   0.22298
H          H       0.38725   0.89914   0.22298
C          C       0.97319   0.56398   0.25855
C          C       0.43602   0.40921   0.25855
C          C       0.59079   0.02681   0.25855
H          H       0.12921   0.50347   0.40216
H          H       0.49653   0.62574   0.40216
H          H       0.37426   0.87079   0.40216
C          C       0.01737   0.56721   0.35018
C          C       0.43279   0.45016   0.35018
C          C       0.54984   0.98263   0.35018
H          H       0.15001   0.55072   0.26360
H          H       0.44928   0.59929   0.26360
H          H       0.40071   0.84999   0.26360
C          C       0.05057   0.54935   0.26691
C          C       0.45065   0.50122   0.26691
C          C       0.49878   0.94943   0.26691
H          H       0.09949   0.60321   0.49008
H          H       0.39679   0.49628   0.49008
H          H       0.50372   0.90051   0.49008
N          N       0.07665   0.53059   0.37149
N          N       0.46941   0.54606   0.37149
N          N       0.45394   0.92335   0.37149
H          H       0.14960   0.59813   0.43279
H          H       0.40187   0.55147   0.43279
H          H       0.44853   0.85040   0.43279
C          C       0.03820   0.48301   0.44565
C          C       0.51699   0.55519   0.44565
C          C       0.44481   0.96180   0.44565
H          H       0.11890   0.56207   0.07569
H          H       0.43793   0.55683   0.07569
H          H       0.44317   0.88110   0.07569
C          C       0.11482   0.51801   0.30916
C          C       0.48199   0.59681   0.30916
C          C       0.40319   0.88518   0.30916
Cl         Cl      0.41255   0.90368   0.04449
Cl         Cl      0.09632   0.50887   0.04449
Cl         Cl      0.49113   0.58745   0.04449
C          C       0.11040   0.57464   0.47237
C          C       0.42536   0.53576   0.47237
C          C       0.46424   0.88960   0.47237
C          C       0.94938   0.98630   0.81581
C          C       0.01370   0.96308   0.81581
C          C       0.03692   0.05062   0.81581
H          H       0.91014   0.97600   0.81797
H          H       0.02400   0.93414   0.81797
H          H       0.06586   0.08986   0.81797
C          C       0.85931   0.71398   0.70447
C          C       0.28602   0.14533   0.70447
C          C       0.85467   0.14069   0.70447
H          H       0.73660   0.63615   0.58206
H          H       0.36385   0.10045   0.58206
H          H       0.89955   0.26340   0.58206
C          C       0.81157   0.69804   0.63216
C          C       0.30196   0.11353   0.63216
C          C       0.88647   0.18843   0.63216
H          H       0.90102   0.68744   0.82551
H          H       0.31256   0.21358   0.82551
H          H       0.78642   0.09898   0.82551
C          C       0.77256   0.64778   0.63794
C          C       0.35222   0.12478   0.63794
C          C       0.87522   0.22744   0.63794
H          H       0.86543   0.56866   0.51606
H          H       0.43134   0.29677   0.51606
H          H       0.70323   0.13457   0.51606
C          C       0.77923   0.61167   0.71544
C          C       0.38833   0.16756   0.71544
C          C       0.83244   0.22077   0.71544
H          H       0.90020   0.63405   0.98153
H          H       0.36595   0.26615   0.98153
H          H       0.73385   0.09980   0.98153
C          C       0.82583   0.62641   0.78466
C          C       0.37359   0.19942   0.78466
C          C       0.80058   0.17417   0.78466
H          H       0.91949   0.61543   0.71647
H          H       0.38457   0.30406   0.71647
H          H       0.69594   0.08051   0.71647
C          C       0.86528   0.67631   0.77375
C          C       0.32369   0.18897   0.77375
C          C       0.81103   0.13472   0.77375
H          H       0.87322   0.54840   0.74665
H          H       0.45160   0.32482   0.74665
H          H       0.67518   0.12678   0.74665
O          O       0.82867   0.59098   0.87774
O          O       0.40902   0.23769   0.87774
O          O       0.76231   0.17133   0.87774
H          H       0.92442   0.54471   0.95654
H          H       0.45529   0.37971   0.95654
H          H       0.62029   0.07558   0.95654
C          C       0.87556   0.59717   0.92649
C          C       0.40283   0.27839   0.92649
C          C       0.72161   0.12444   0.92649
H          H       0.96826   0.61145   0.93451
H          H       0.38855   0.35681   0.93451
H          H       0.64319   0.03174   0.93451
C          C       0.90199   0.58403   0.80029
C          C       0.41597   0.31796   0.80029
C          C       0.68204   0.09801   0.80029
H          H       0.83138   0.75948   0.50202
H          H       0.24052   0.07190   0.50202
H          H       0.92810   0.16862   0.50202
C          C       0.94249   0.57614   0.87226
C          C       0.42386   0.36635   0.87226
C          C       0.63365   0.05751   0.87226
H          H       0.78752   0.53400   0.63053
H          H       0.46600   0.25352   0.63053
H          H       0.74648   0.21248   0.63053
O          O       0.80083   0.72933   0.54675
O          O       0.27067   0.07150   0.54675
O          O       0.92850   0.19917   0.54675
H          H       0.77276   0.45305   0.64988
H          H       0.54695   0.31971   0.64988
H          H       0.68029   0.22724   0.64988
C          C       0.73908   0.55759   0.71658
C          C       0.44241   0.18149   0.71658
C          C       0.81851   0.26092   0.71658
H          H       0.63190   0.39063   0.67473
H          H       0.60937   0.24127   0.67473
H          H       0.75873   0.36810   0.67473
N          N       0.75156   0.52237   0.67383
N          N       0.47763   0.22919   0.67383
N          N       0.77081   0.24844   0.67383
H          H       0.85354   0.79717   0.74011
H          H       0.20283   0.05637   0.74011
H          H       0.94363   0.14646   0.74011
O          O       0.69517   0.54511   0.74813
O          O       0.45489   0.15006   0.74813
O          O       0.84994   0.30483   0.74813
H          H       0.88304   0.88528   0.81264
H          H       0.11472   0.99776   0.81264
H          H       0.00224   0.11696   0.81264
N          N       0.71769   0.47102   0.68834
N          N       0.52898   0.24667   0.68834
N          N       0.75333   0.28231   0.68834
H          H       0.98918   0.59292   0.66604
H          H       0.40708   0.39626   0.66604
H          H       0.60374   0.01082   0.66604
C          C       0.73342   0.43939   0.67161
C          C       0.56061   0.29403   0.67161
C          C       0.70597   0.26658   0.67161
H          H       0.94919   0.52638   0.70660
H          H       0.47362   0.42281   0.70660
H          H       0.57719   0.05081   0.70660
C          C       0.69897   0.38527   0.67618
C          C       0.61473   0.31370   0.67618
C          C       0.68630   0.30103   0.67618
H          H       0.00440   0.54945   0.96364
H          H       0.45055   0.45495   0.96364
H          H       0.54505   0.99560   0.96364
C          C       0.64710   0.36546   0.67557
C          C       0.63454   0.28164   0.67557
C          C       0.71836   0.35290   0.67557
H          H       0.04171   0.60822   0.87421
H          H       0.39178   0.43349   0.87421
H          H       0.56651   0.95829   0.87421
O          O       0.94519   0.77768   0.74199
O          O       0.22232   0.16751   0.74199
O          O       0.83249   0.05481   0.74199
H          H       0.07713   0.58348   0.71179
H          H       0.41652   0.49365   0.71179
H          H       0.50635   0.92287   0.71179
N          N       0.89137   0.80638   0.74498
N          N       0.19362   0.08499   0.74498
N          N       0.91501   0.10863   0.74498
H          H       0.02650   0.52078   0.68442
H          H       0.47922   0.50572   0.68442
H          H       0.49428   0.97350   0.68442
N          N       0.93022   0.85700   0.76786
N          N       0.14300   0.07322   0.76786
N          N       0.92678   0.06978   0.76786
H          H       0.02690   0.45060   0.86617
H          H       0.54940   0.57630   0.86617
H          H       0.42370   0.97310   0.86617
C          C       0.92157   0.89371   0.80002
C          C       0.10629   0.02786   0.80002
C          C       0.97214   0.07843   0.80002
H          H       0.00167   0.48039   0.96924
H          H       0.51961   0.52128   0.96924
H          H       0.47872   0.99833   0.96924
C          C       0.96235   0.94820   0.81256
C          C       0.05180   0.01415   0.81256
C          C       0.98585   0.03765   0.81256
H          H       0.05162   0.47362   0.54995
H          H       0.52638   0.57800   0.54995
H          H       0.42200   0.94838   0.54995
C          C       0.90193   0.76812   0.72668
C          C       0.23188   0.13381   0.72668
C          C       0.86619   0.09807   0.72668
H          H       0.10086   0.48811   0.72298
H          H       0.51189   0.61275   0.72298
H          H       0.38725   0.89914   0.72298
C          C       0.97319   0.56398   0.75855
C          C       0.43602   0.40921   0.75855
C          C       0.59079   0.02681   0.75855
H          H       0.12921   0.50347   0.90217
H          H       0.49653   0.62574   0.90217
H          H       0.37426   0.87079   0.90217
C          C       0.01737   0.56721   0.85018
C          C       0.43279   0.45016   0.85018
C          C       0.54984   0.98263   0.85018
H          H       0.15001   0.55072   0.76360
H          H       0.44928   0.59929   0.76360
H          H       0.40071   0.84999   0.76360
C          C       0.05057   0.54935   0.76691
C          C       0.45065   0.50122   0.76691
C          C       0.49878   0.94943   0.76691
H          H       0.09949   0.60321   0.99008
H          H       0.39679   0.49628   0.99008
H          H       0.50372   0.90051   0.99008
N          N       0.07665   0.53059   0.87149
N          N       0.46941   0.54606   0.87149
N          N       0.45394   0.92335   0.87149
H          H       0.14960   0.59813   0.93279
H          H       0.40187   0.55147   0.93279
H          H       0.44853   0.85040   0.93279
C          C       0.03820   0.48301   0.94564
C          C       0.51699   0.55519   0.94564
C          C       0.44481   0.96180   0.94564
H          H       0.11890   0.56207   0.57569
H          H       0.43793   0.55683   0.57569
H          H       0.44317   0.88110   0.57569
C          C       0.11482   0.51801   0.80916
C          C       0.48199   0.59681   0.80916
C          C       0.40319   0.88518   0.80916
Cl         Cl      0.41255   0.90368   0.54449
Cl         Cl      0.09632   0.50887   0.54449
Cl         Cl      0.49113   0.58745   0.54449
C          C       0.11040   0.57464   0.97237
C          C       0.42536   0.53576   0.97237
C          C       0.46424   0.88960   0.97237
