data_crystal

_cell_length_a    37.99000
_cell_length_b    24.33000
_cell_length_c    9.60000
_cell_angle_alpha 90.00000
_cell_angle_beta  90.00000
_cell_angle_gamma 90.00000

_symmetry_space_group_name_Hall 'P 1'
_symmetry_space_group_name_H-M  'P 1'

loop_
_symmetry_equiv_pos_as_xyz
 'x,y,z'

loop_
_atom_site_label
_atom_site_type_symbol
_atom_site_fract_x
_atom_site_fract_y
_atom_site_fract_z
C          C       0.46525   0.61933   0.25056
C          C       0.53475   0.61933   0.24944
C          C       0.43779   0.73366   0.34556
C          C       0.56221   0.73366   0.15444
C          C       0.43571   0.63320   0.16875
C          C       0.56429   0.63320   0.33125
C          C       0.36192   0.83501   0.25178
C          C       0.63808   0.83501   0.24822
C          C       0.40385   0.60300   0.17029
C          C       0.59615   0.60300   0.32971
C          C       0.35727   0.89023   0.20788
C          C       0.64273   0.89023   0.29212
C          C       0.39914   0.55633   0.25585
C          C       0.60086   0.55633   0.24415
C          C       0.32370   0.91657   0.21012
C          C       0.67630   0.91657   0.28988
C          C       0.42884   0.54131   0.33754
C          C       0.57116   0.54131   0.16246
C          C       0.29288   0.88919   0.25649
C          C       0.70712   0.88919   0.24351
C          C       0.46102   0.57168   0.33390
C          C       0.53898   0.57168   0.16610
C          C       0.29755   0.83370   0.29729
C          C       0.70245   0.83370   0.20271
C          C       0.36379   0.52449   0.25921
C          C       0.63621   0.52449   0.24079
C          C       0.33092   0.80750   0.29495
C          C       0.66908   0.80750   0.20505
C          C       0.33133   0.54938   0.22144
C          C       0.66867   0.54938   0.27855
H          H       0.43655   0.66945   0.10750
H          H       0.56345   0.66945   0.39250
C          C       0.29888   0.52011   0.22296
C          C       0.70112   0.52011   0.27704
H          H       0.38287   0.61680   0.10271
H          H       0.61713   0.61680   0.39729
C          C       0.29682   0.46428   0.26344
C          C       0.70318   0.46428   0.23656
H          H       0.42726   0.50648   0.40720
H          H       0.57274   0.50648   0.09280
C          C       0.32922   0.43936   0.30111
C          C       0.67078   0.43936   0.19889
H          H       0.48252   0.55825   0.39919
H          H       0.51748   0.55825   0.10081
C          C       0.36168   0.46853   0.29902
C          C       0.63832   0.46853   0.20098
H          H       0.33054   0.59232   0.19269
H          H       0.66946   0.59232   0.30731
C          C       0.26151   0.43259   0.26925
C          C       0.73849   0.43259   0.23075
H          H       0.27515   0.54206   0.19500
H          H       0.72485   0.54206   0.30500
C          C       0.23231   0.44503   0.18182
C          C       0.76769   0.44503   0.31818
H          H       0.32985   0.39646   0.33052
H          H       0.67015   0.39646   0.16948
C          C       0.20001   0.41494   0.18874
C          C       0.79999   0.41494   0.31127
H          H       0.38533   0.44636   0.32676
H          H       0.61467   0.44636   0.17324
C          C       0.19541   0.37118   0.28395
C          C       0.80459   0.37118   0.21605
H          H       0.23452   0.47754   0.10544
H          H       0.76548   0.47754   0.39456
C          C       0.22441   0.35922   0.37112
C          C       0.77559   0.35922   0.12888
H          H       0.17877   0.42580   0.11879
H          H       0.82123   0.42580   0.38121
C          C       0.25641   0.38892   0.36426
C          C       0.74359   0.38892   0.13574
H          H       0.22231   0.32643   0.44701
H          H       0.77769   0.32643   0.05299
C          C       0.16190   0.33644   0.29873
C          C       0.83810   0.33644   0.20127
H          H       0.27705   0.37793   0.43671
H          H       0.72295   0.37793   0.06329
C          C       0.03439   0.11735   0.24054
C          C       0.96561   0.11735   0.25946
H          H       0.16298   0.30471   0.37734
H          H       0.83702   0.30471   0.12266
C          C       0.03485   0.24440   0.24635
C          C       0.96515   0.24440   0.25365
H          H       0.02250   0.06038   0.40722
H          H       0.97750   0.06038   0.09278
C          C       0.04182   0.07253   0.33039
C          C       0.95818   0.07253   0.16961
H          H       0.07893   0.01093   0.39935
H          H       0.92107   0.01093   0.10065
C          C       0.07471   0.04401   0.32611
C          C       0.92529   0.04401   0.17389
H          H       0.11281   0.11502   0.06215
H          H       0.88719   0.11502   0.43785
C          C       0.10154   0.05892   0.23023
C          C       0.89846   0.05892   0.26977
H          H       0.05599   0.16350   0.07415
H          H       0.94401   0.16350   0.42585
C          C       0.09342   0.10214   0.13808
C          C       0.90658   0.10214   0.36192
H          H       0.06615   0.19271   0.37961
H          H       0.93385   0.19271   0.12039
C          C       0.06067   0.12990   0.14276
C          C       0.93933   0.12990   0.35724
H          H       0.11934   0.24581   0.37610
H          H       0.88066   0.24581   0.12390
C          C       0.06557   0.22991   0.32155
C          C       0.93443   0.22991   0.17845
H          H       0.07033   0.36095   0.09627
H          H       0.92967   0.36095   0.40373
C          C       0.09715   0.26099   0.31729
C          C       0.90285   0.26099   0.18271
H          H       0.01554   0.30720   0.10619
H          H       0.98446   0.30720   0.39381
C          C       0.10001   0.30930   0.23644
C          C       0.89999   0.30930   0.26355
H          H       0.26440   0.97699   0.09899
H          H       0.73560   0.97699   0.40101
C          C       0.06957   0.32447   0.16079
C          C       0.93043   0.32447   0.33921
H          H       0.20581   0.02013   0.11549
H          H       0.79419   0.02013   0.38451
C          C       0.03782   0.29322   0.16645
C          C       0.96218   0.29322   0.33354
H          H       0.17891   0.90967   0.44874
H          H       0.82109   0.90967   0.05127
N          N       0.13261   0.34245   0.22595
N          N       0.86739   0.34245   0.27405
H          H       0.23685   0.86774   0.43563
H          H       0.76315   0.86774   0.06437
C          C       0.25643   0.91755   0.26482
C          C       0.74357   0.91755   0.23518
H          H       0.13390   0.97638   0.38295
H          H       0.86610   0.97638   0.11705
C          C       0.24627   0.96192   0.17705
C          C       0.75373   0.96192   0.32295
H          H       0.47951   0.80450   0.09271
H          H       0.52049   0.80450   0.40729
C          C       0.21223   0.98680   0.18576
C          C       0.78777   0.98680   0.31424
H          H       0.42312   0.85394   0.09037
H          H       0.57688   0.85394   0.40963
C          C       0.18683   0.96864   0.28325
C          C       0.81317   0.96864   0.21675
H          H       0.38556   0.74897   0.42046
H          H       0.61444   0.74897   0.07954
C          C       0.19713   0.92491   0.37101
C          C       0.80287   0.92491   0.12899
H          H       0.44106   0.69928   0.41236
H          H       0.55894   0.69928   0.08764
C          C       0.23081   0.90018   0.36239
C          C       0.76919   0.90018   0.13761
H          H       0.37979   0.91398   0.17425
H          H       0.62021   0.91398   0.32575
C          C       0.14987   0.99322   0.30003
C          C       0.85013   0.99322   0.19997
H          H       0.32219   0.95915   0.17816
H          H       0.67781   0.95915   0.32184
N          N       0.13659   0.03270   0.22183
N          N       0.86341   0.03270   0.27817
H          H       0.27514   0.80949   0.32979
H          H       0.72486   0.80949   0.17021
C          C       0.46544   0.74651   0.25406
C          C       0.53456   0.74651   0.24594
H          H       0.33204   0.76477   0.32561
H          H       0.66796   0.76477   0.17439
C          C       0.45927   0.79201   0.16517
C          C       0.54073   0.79201   0.33483
C          C       0.00000   0.15138   0.25000
C          C       0.42649   0.82086   0.16443
C          C       0.57351   0.82086   0.33557
C          C       0.00000   0.21009   0.25000
C          C       0.39825   0.80606   0.25398
C          C       0.60175   0.80606   0.24602
C          C       0.50000   0.71238   0.25000
C          C       0.40524   0.76202   0.34614
C          C       0.59476   0.76202   0.15386
C          C       0.50000   0.65360   0.25000
C          C       0.46525   0.61933   0.75056
C          C       0.53475   0.61933   0.74943
C          C       0.43779   0.73366   0.84556
C          C       0.56221   0.73366   0.65444
C          C       0.43571   0.63320   0.66875
C          C       0.56429   0.63320   0.83125
C          C       0.36192   0.83501   0.75177
C          C       0.63808   0.83501   0.74823
C          C       0.40385   0.60300   0.67029
C          C       0.59615   0.60300   0.82971
C          C       0.35727   0.89023   0.70788
C          C       0.64273   0.89023   0.79212
C          C       0.39914   0.55633   0.75585
C          C       0.60086   0.55633   0.74415
C          C       0.32370   0.91657   0.71012
C          C       0.67630   0.91657   0.78988
C          C       0.42884   0.54131   0.83754
C          C       0.57116   0.54131   0.66246
C          C       0.29288   0.88919   0.75648
C          C       0.70712   0.88919   0.74352
C          C       0.46102   0.57168   0.83390
C          C       0.53898   0.57168   0.66610
C          C       0.29755   0.83370   0.79729
C          C       0.70245   0.83370   0.70271
C          C       0.36379   0.52449   0.75921
C          C       0.63621   0.52449   0.74079
C          C       0.33092   0.80750   0.79495
C          C       0.66908   0.80750   0.70505
C          C       0.33133   0.54938   0.72145
C          C       0.66867   0.54938   0.77856
H          H       0.43655   0.66945   0.60750
H          H       0.56345   0.66945   0.89250
C          C       0.29888   0.52011   0.72296
C          C       0.70112   0.52011   0.77704
H          H       0.38287   0.61680   0.60271
H          H       0.61713   0.61680   0.89729
C          C       0.29682   0.46428   0.76345
C          C       0.70318   0.46428   0.73656
H          H       0.42726   0.50648   0.90721
H          H       0.57274   0.50648   0.59280
C          C       0.32922   0.43936   0.80111
C          C       0.67078   0.43936   0.69889
H          H       0.48252   0.55825   0.89919
H          H       0.51748   0.55825   0.60081
C          C       0.36168   0.46853   0.79902
C          C       0.63832   0.46853   0.70098
H          H       0.33054   0.59232   0.69269
H          H       0.66946   0.59232   0.80731
C          C       0.26151   0.43259   0.76925
C          C       0.73849   0.43259   0.73075
H          H       0.27515   0.54206   0.69499
H          H       0.72485   0.54206   0.80500
C          C       0.23231   0.44503   0.68182
C          C       0.76769   0.44503   0.81818
H          H       0.32985   0.39646   0.83052
H          H       0.67015   0.39646   0.66948
C          C       0.20001   0.41494   0.68873
C          C       0.79999   0.41494   0.81127
H          H       0.38533   0.44636   0.82676
H          H       0.61467   0.44636   0.67324
C          C       0.19541   0.37118   0.78395
C          C       0.80459   0.37118   0.71605
H          H       0.23452   0.47754   0.60544
H          H       0.76548   0.47754   0.89456
C          C       0.22441   0.35922   0.87113
C          C       0.77559   0.35922   0.62888
H          H       0.17877   0.42580   0.61879
H          H       0.82123   0.42580   0.88122
C          C       0.25641   0.38892   0.86426
C          C       0.74359   0.38892   0.63574
H          H       0.22231   0.32643   0.94701
H          H       0.77769   0.32643   0.55299
C          C       0.16190   0.33644   0.79873
C          C       0.83810   0.33644   0.70127
H          H       0.27705   0.37793   0.93671
H          H       0.72295   0.37793   0.56329
C          C       0.03439   0.11735   0.74054
C          C       0.96561   0.11735   0.75946
H          H       0.16298   0.30471   0.87734
H          H       0.83702   0.30471   0.62266
C          C       0.03485   0.24440   0.74635
C          C       0.96515   0.24440   0.75365
H          H       0.02250   0.06038   0.90722
H          H       0.97750   0.06038   0.59278
C          C       0.04182   0.07253   0.83039
C          C       0.95818   0.07253   0.66961
H          H       0.07893   0.01093   0.89935
H          H       0.92107   0.01093   0.60065
C          C       0.07471   0.04401   0.82611
C          C       0.92529   0.04401   0.67389
H          H       0.11281   0.11502   0.56215
H          H       0.88719   0.11502   0.93785
C          C       0.10154   0.05892   0.73024
C          C       0.89846   0.05892   0.76977
H          H       0.05599   0.16350   0.57415
H          H       0.94401   0.16350   0.92585
C          C       0.09342   0.10214   0.63808
C          C       0.90658   0.10214   0.86192
H          H       0.06615   0.19271   0.87960
H          H       0.93385   0.19271   0.62040
C          C       0.06067   0.12990   0.64276
C          C       0.93933   0.12990   0.85724
H          H       0.11934   0.24581   0.87610
H          H       0.88066   0.24581   0.62390
C          C       0.06557   0.22991   0.82155
C          C       0.93443   0.22991   0.67845
H          H       0.07033   0.36095   0.59627
H          H       0.92967   0.36095   0.90373
C          C       0.09715   0.26099   0.81729
C          C       0.90285   0.26099   0.68271
H          H       0.01554   0.30720   0.60619
H          H       0.98446   0.30720   0.89380
C          C       0.10001   0.30930   0.73645
C          C       0.89999   0.30930   0.76356
H          H       0.26440   0.97699   0.59899
H          H       0.73560   0.97699   0.90101
C          C       0.06957   0.32447   0.66079
C          C       0.93043   0.32447   0.83922
H          H       0.20581   0.02013   0.61548
H          H       0.79419   0.02013   0.88452
C          C       0.03782   0.29322   0.66646
C          C       0.96218   0.29322   0.83354
H          H       0.17891   0.90967   0.94873
H          H       0.82109   0.90967   0.55127
N          N       0.13261   0.34245   0.72594
N          N       0.86739   0.34245   0.77406
H          H       0.23685   0.86774   0.93563
H          H       0.76315   0.86774   0.56437
C          C       0.25643   0.91755   0.76482
C          C       0.74357   0.91755   0.73518
H          H       0.13390   0.97638   0.88295
H          H       0.86610   0.97638   0.61705
C          C       0.24627   0.96192   0.67705
C          C       0.75373   0.96192   0.82295
H          H       0.47951   0.80450   0.59271
H          H       0.52049   0.80450   0.90729
C          C       0.21223   0.98680   0.68576
C          C       0.78777   0.98680   0.81424
H          H       0.42312   0.85394   0.59037
H          H       0.57688   0.85394   0.90963
C          C       0.18683   0.96864   0.78325
C          C       0.81317   0.96864   0.71675
H          H       0.38556   0.74897   0.92046
H          H       0.61444   0.74897   0.57954
C          C       0.19713   0.92491   0.87101
C          C       0.80287   0.92491   0.62899
H          H       0.44106   0.69928   0.91236
H          H       0.55894   0.69928   0.58764
C          C       0.23081   0.90018   0.86239
C          C       0.76919   0.90018   0.63761
H          H       0.37979   0.91398   0.67425
H          H       0.62021   0.91398   0.82575
C          C       0.14987   0.99322   0.80003
C          C       0.85013   0.99322   0.69997
H          H       0.32219   0.95915   0.67816
H          H       0.67781   0.95915   0.82184
N          N       0.13659   0.03270   0.72183
N          N       0.86341   0.03270   0.77817
H          H       0.27514   0.80949   0.82979
H          H       0.72486   0.80949   0.67021
C          C       0.46544   0.74651   0.75406
C          C       0.53456   0.74651   0.74594
H          H       0.33204   0.76477   0.82561
H          H       0.66796   0.76477   0.67439
C          C       0.45927   0.79201   0.66517
C          C       0.54073   0.79201   0.83484
C          C       0.00000   0.15138   0.75000
C          C       0.42649   0.82086   0.66443
C          C       0.57351   0.82086   0.83557
C          C       0.00000   0.21009   0.75000
C          C       0.39825   0.80606   0.75397
C          C       0.60175   0.80606   0.74603
C          C       0.50000   0.71238   0.75000
C          C       0.40524   0.76202   0.84614
C          C       0.59476   0.76202   0.65386
C          C       0.50000   0.65360   0.75000
