data_crystal

_cell_length_a    34.29470
_cell_length_b    34.29470
_cell_length_c    8.33480
_cell_angle_alpha 90.00000
_cell_angle_beta  90.00000
_cell_angle_gamma 120.00000

_space_group_name_Hall 'P 1'
_space_group_name_H-M_alt  'P 1'

loop_
_symmetry_equiv_pos_as_xyz
'x,y,z'

loop_
_atom_site_label
_atom_site_type_symbol
_atom_site_fract_x
_atom_site_fract_y
_atom_site_fract_z
C          C       0.43064   0.78120   0.02018
C          C       0.21880   0.64944   0.02018
C          C       0.35056   0.56936   0.02018
C          C       0.56936   0.21880   0.47982
C          C       0.78120   0.35056   0.47982
C          C       0.64944   0.43064   0.47982
C          C       0.45697   0.82764   0.49724
C          C       0.17236   0.62933   0.49724
C          C       0.37067   0.54303   0.49724
C          C       0.54303   0.17236   0.00276
C          C       0.82764   0.37067   0.00276
C          C       0.62933   0.45697   0.00276
C          C       0.44401   0.85674   0.06341
C          C       0.14326   0.58727   0.06341
C          C       0.41273   0.55599   0.06341
C          C       0.55599   0.14326   0.43659
C          C       0.85674   0.41273   0.43659
C          C       0.58727   0.44401   0.43659
C          C       0.40588   0.83935   0.16218
C          C       0.16065   0.56653   0.16218
C          C       0.43347   0.59412   0.16218
C          C       0.59412   0.16065   0.33782
C          C       0.83935   0.43347   0.33782
C          C       0.56653   0.40588   0.33782
C          C       0.37990   0.79301   0.18870
C          C       0.20699   0.58689   0.18870
C          C       0.41311   0.62010   0.18870
C          C       0.62010   0.20699   0.31130
C          C       0.79301   0.41311   0.31130
C          C       0.58689   0.37990   0.31130
C          C       0.39149   0.76327   0.11522
C          C       0.23673   0.62822   0.11522
C          C       0.37178   0.60851   0.11522
C          C       0.60851   0.23673   0.38478
C          C       0.76327   0.37178   0.38478
C          C       0.62822   0.39149   0.38478
C          C       0.36178   0.71379   0.13055
C          C       0.28621   0.64799   0.13055
C          C       0.35201   0.63822   0.13055
C          C       0.63822   0.28621   0.36945
C          C       0.71379   0.35201   0.36945
C          C       0.64799   0.36178   0.36945
C          C       0.31483   0.69483   0.13188
C          C       0.30517   0.62000   0.13188
C          C       0.38000   0.68517   0.13188
C          C       0.68517   0.30517   0.36812
C          C       0.69483   0.38000   0.36812
C          C       0.62000   0.31483   0.36812
H          H       0.44003   0.75939   0.45806
H          H       0.24061   0.68064   0.45806
H          H       0.31936   0.55997   0.45806
H          H       0.55997   0.24061   0.04194
H          H       0.75939   0.31936   0.04194
H          H       0.68064   0.44003   0.04194
H          H       0.48658   0.84120   0.42191
H          H       0.15880   0.64538   0.42191
H          H       0.35462   0.51342   0.42191
H          H       0.51342   0.15880   0.07809
H          H       0.84120   0.35462   0.07809
H          H       0.64538   0.48658   0.07809
H          H       0.39621   0.86179   0.21661
H          H       0.13821   0.53442   0.21661
H          H       0.46558   0.60379   0.21661
H          H       0.60379   0.13821   0.28339
H          H       0.86179   0.46558   0.28339
H          H       0.53442   0.39621   0.28339
H          H       0.35091   0.78055   0.26706
H          H       0.21945   0.57036   0.26706
H          H       0.42964   0.64909   0.26706
H          H       0.64909   0.21945   0.23294
H          H       0.78055   0.42964   0.23294
H          H       0.57036   0.35091   0.23294
C          C       0.47413   0.55121   0.45537
C          C       0.44879   0.92292   0.45537
C          C       0.07708   0.52587   0.45537
C          C       0.52587   0.44879   0.04463
C          C       0.55121   0.07708   0.04463
C          C       0.92292   0.47413   0.04463
C          C       0.48759   0.52497   0.35125
C          C       0.47503   0.96262   0.35125
C          C       0.03738   0.51241   0.35125
C          C       0.51241   0.47503   0.14875
C          C       0.52497   0.03738   0.14875
C          C       0.96262   0.48759   0.14875
C          C       0.45699   0.47945   0.31811
C          C       0.52055   0.97754   0.31811
C          C       0.02246   0.54301   0.31811
C          C       0.54301   0.52055   0.18189
C          C       0.47945   0.02246   0.18189
C          C       0.97754   0.45699   0.18189
C          C       0.46928   0.45471   0.21817
C          C       0.54529   0.01457   0.21817
C          C       0.98543   0.53072   0.21817
C          C       0.53072   0.54529   0.28183
C          C       0.45471   0.98543   0.28183
C          C       0.01457   0.46928   0.28183
H          H       0.57655   0.53684   0.13057
H          H       0.46316   0.03971   0.13057
H          H       0.96029   0.42345   0.13057
H          H       0.42345   0.46316   0.36943
H          H       0.53684   0.96029   0.36943
H          H       0.03971   0.57655   0.36943
H          H       0.55480   0.58043   0.30496
H          H       0.41957   0.97437   0.30496
H          H       0.02563   0.44520   0.30496
H          H       0.44520   0.41957   0.19504
H          H       0.58043   0.02563   0.19504
H          H       0.97437   0.55480   0.19504
O          O       0.43210   0.52934   0.03219
O          O       0.47066   0.90276   0.03219
O          O       0.09724   0.56790   0.03219
O          O       0.56790   0.47066   0.46781
O          O       0.52934   0.09724   0.46781
O          O       0.90276   0.43210   0.46781
H          H       0.30047   0.71659   0.12879
H          H       0.28341   0.58388   0.12879
H          H       0.41612   0.69953   0.12879
H          H       0.69953   0.28341   0.37121
H          H       0.71659   0.41612   0.37121
H          H       0.58388   0.30047   0.37121
O          O       0.49946   0.59162   0.47247
O          O       0.40838   0.90784   0.47247
O          O       0.09216   0.50054   0.47247
O          O       0.50054   0.40838   0.02753
O          O       0.59162   0.09216   0.02753
O          O       0.90784   0.49946   0.02753
C          C       0.43064   0.78120   0.52018
C          C       0.21880   0.64944   0.52018
C          C       0.35056   0.56936   0.52018
C          C       0.56936   0.21880   0.97982
C          C       0.78120   0.35056   0.97982
C          C       0.64944   0.43064   0.97982
C          C       0.45697   0.82764   0.99724
C          C       0.17236   0.62933   0.99724
C          C       0.37067   0.54303   0.99724
C          C       0.54303   0.17236   0.50276
C          C       0.82764   0.37067   0.50276
C          C       0.62933   0.45697   0.50276
C          C       0.44401   0.85674   0.56341
C          C       0.14326   0.58727   0.56341
C          C       0.41273   0.55599   0.56341
C          C       0.55599   0.14326   0.93659
C          C       0.85674   0.41273   0.93659
C          C       0.58727   0.44401   0.93659
C          C       0.40588   0.83935   0.66218
C          C       0.16065   0.56653   0.66218
C          C       0.43347   0.59412   0.66218
C          C       0.59412   0.16065   0.83782
C          C       0.83935   0.43347   0.83782
C          C       0.56653   0.40588   0.83782
C          C       0.37990   0.79301   0.68870
C          C       0.20699   0.58689   0.68870
C          C       0.41311   0.62010   0.68870
C          C       0.62010   0.20699   0.81130
C          C       0.79301   0.41311   0.81130
C          C       0.58689   0.37990   0.81130
C          C       0.39149   0.76327   0.61522
C          C       0.23673   0.62822   0.61522
C          C       0.37178   0.60851   0.61522
C          C       0.60851   0.23673   0.88478
C          C       0.76327   0.37178   0.88478
C          C       0.62822   0.39149   0.88478
C          C       0.36178   0.71379   0.63055
C          C       0.28621   0.64799   0.63055
C          C       0.35201   0.63822   0.63055
C          C       0.63822   0.28621   0.86945
C          C       0.71379   0.35201   0.86945
C          C       0.64799   0.36178   0.86945
C          C       0.31483   0.69483   0.63188
C          C       0.30517   0.62000   0.63188
C          C       0.38000   0.68517   0.63188
C          C       0.68517   0.30517   0.86812
C          C       0.69483   0.38000   0.86812
C          C       0.62000   0.31483   0.86812
H          H       0.44003   0.75939   0.95806
H          H       0.24061   0.68064   0.95806
H          H       0.31936   0.55997   0.95806
H          H       0.55997   0.24061   0.54194
H          H       0.75939   0.31936   0.54194
H          H       0.68064   0.44003   0.54194
H          H       0.48658   0.84120   0.92192
H          H       0.15880   0.64538   0.92192
H          H       0.35462   0.51342   0.92192
H          H       0.51342   0.15880   0.57808
H          H       0.84120   0.35462   0.57808
H          H       0.64538   0.48658   0.57808
H          H       0.39621   0.86179   0.71661
H          H       0.13821   0.53442   0.71661
H          H       0.46558   0.60379   0.71661
H          H       0.60379   0.13821   0.78339
H          H       0.86179   0.46558   0.78339
H          H       0.53442   0.39621   0.78339
H          H       0.35091   0.78055   0.76706
H          H       0.21945   0.57036   0.76706
H          H       0.42964   0.64909   0.76706
H          H       0.64909   0.21945   0.73294
H          H       0.78055   0.42964   0.73294
H          H       0.57036   0.35091   0.73294
C          C       0.47413   0.55121   0.95537
C          C       0.44879   0.92292   0.95537
C          C       0.07708   0.52587   0.95537
C          C       0.52587   0.44879   0.54463
C          C       0.55121   0.07708   0.54463
C          C       0.92292   0.47413   0.54463
C          C       0.48759   0.52497   0.85125
C          C       0.47503   0.96262   0.85125
C          C       0.03738   0.51241   0.85125
C          C       0.51241   0.47503   0.64875
C          C       0.52497   0.03738   0.64875
C          C       0.96262   0.48759   0.64875
C          C       0.45699   0.47945   0.81811
C          C       0.52055   0.97754   0.81811
C          C       0.02246   0.54301   0.81811
C          C       0.54301   0.52055   0.68189
C          C       0.47945   0.02246   0.68189
C          C       0.97754   0.45699   0.68189
C          C       0.46928   0.45471   0.71817
C          C       0.54529   0.01457   0.71817
C          C       0.98543   0.53072   0.71817
C          C       0.53072   0.54529   0.78183
C          C       0.45471   0.98543   0.78183
C          C       0.01457   0.46928   0.78183
H          H       0.57655   0.53684   0.63057
H          H       0.46316   0.03971   0.63057
H          H       0.96029   0.42345   0.63057
H          H       0.42345   0.46316   0.86943
H          H       0.53684   0.96029   0.86943
H          H       0.03971   0.57655   0.86943
H          H       0.55480   0.58043   0.80496
H          H       0.41957   0.97437   0.80496
H          H       0.02563   0.44520   0.80496
H          H       0.44520   0.41957   0.69503
H          H       0.58043   0.02563   0.69503
H          H       0.97437   0.55480   0.69503
O          O       0.43210   0.52934   0.53219
O          O       0.47066   0.90276   0.53219
O          O       0.09724   0.56790   0.53219
O          O       0.56790   0.47066   0.96780
O          O       0.52934   0.09724   0.96780
O          O       0.90276   0.43210   0.96780
H          H       0.30047   0.71659   0.62879
H          H       0.28341   0.58388   0.62879
H          H       0.41612   0.69953   0.62879
H          H       0.69953   0.28341   0.87121
H          H       0.71659   0.41612   0.87121
H          H       0.58388   0.30047   0.87121
O          O       0.49946   0.59162   0.97246
O          O       0.40838   0.90784   0.97246
O          O       0.09216   0.50054   0.97246
O          O       0.50054   0.40838   0.52753
O          O       0.59162   0.09216   0.52753
O          O       0.90784   0.49946   0.52753
