data_crystal

_cell_length_a    37.47860
_cell_length_b    37.47860
_cell_length_c    9.90440
_cell_angle_alpha 90.00000
_cell_angle_beta  90.00000
_cell_angle_gamma 120.00000

_space_group_name_Hall 'P 1'
_space_group_name_H-M_alt  'P 1'

loop_
_symmetry_equiv_pos_as_xyz
 'x,y,z'

loop_
_atom_site_label
_atom_site_type_symbol
_atom_site_fract_x
_atom_site_fract_y
_atom_site_fract_z
C          C       0.48339   0.72721   0.45548
C          C       0.27279   0.75618   0.45548
C          C       0.24382   0.51661   0.45548
C          C       0.51661   0.27279   0.04452
C          C       0.72721   0.24382   0.04452
C          C       0.75618   0.48339   0.04452
C          C       0.55711   0.75487   0.45862
C          C       0.24513   0.80224   0.45862
C          C       0.19776   0.44289   0.45862
C          C       0.44289   0.24513   0.04138
C          C       0.75487   0.19776   0.04138
C          C       0.80224   0.55711   0.04138
H          H       0.45223   0.70154   0.44979
H          H       0.29846   0.75069   0.44979
H          H       0.24931   0.54777   0.44979
H          H       0.54777   0.29846   0.05021
H          H       0.70154   0.24931   0.05021
H          H       0.75069   0.45223   0.05021
H          H       0.58377   0.75093   0.45570
H          H       0.24907   0.83284   0.45570
H          H       0.16716   0.41623   0.45570
H          H       0.41623   0.24907   0.04430
H          H       0.75093   0.16716   0.04430
H          H       0.83284   0.58377   0.04430
O          O       0.54561   0.67377   0.42583
O          O       0.32623   0.87184   0.42583
O          O       0.12816   0.45439   0.42583
O          O       0.45439   0.32623   0.07417
O          O       0.67377   0.12816   0.07417
O          O       0.87184   0.54561   0.07417
C          C       0.51104   0.67887   0.43663
C          C       0.32113   0.83217   0.43663
C          C       0.16783   0.48896   0.43663
C          C       0.48896   0.32113   0.06337
C          C       0.67887   0.16783   0.06337
C          C       0.83217   0.51104   0.06337
C          C       0.51717   0.72077   0.45103
C          C       0.27923   0.79640   0.45103
C          C       0.20360   0.48283   0.45103
C          C       0.48283   0.27923   0.04897
C          C       0.72077   0.20360   0.04897
C          C       0.79640   0.51717   0.04897
O          O       0.47623   0.64912   0.43844
O          O       0.35088   0.82711   0.43844
O          O       0.17289   0.52377   0.43844
O          O       0.52377   0.35088   0.06156
O          O       0.64912   0.17289   0.06156
O          O       0.82711   0.47623   0.06156
C          C       0.56319   0.79463   0.46914
C          C       0.20537   0.76856   0.46914
C          C       0.23144   0.43681   0.46914
C          C       0.43681   0.20537   0.03086
C          C       0.79463   0.23144   0.03086
C          C       0.76856   0.56319   0.03086
C          C       0.48947   0.76700   0.46558
C          C       0.23300   0.72247   0.46558
C          C       0.27753   0.51053   0.46558
C          C       0.51053   0.23300   0.03442
C          C       0.76700   0.27753   0.03442
C          C       0.72247   0.48947   0.03442
H          H       0.59436   0.82033   0.47360
H          H       0.17967   0.77403   0.47360
H          H       0.22597   0.40564   0.47360
H          H       0.40564   0.17967   0.02640
H          H       0.82033   0.22597   0.02640
H          H       0.77403   0.59436   0.02640
H          H       0.46283   0.77099   0.46739
H          H       0.22901   0.69184   0.46739
H          H       0.30816   0.53717   0.46739
H          H       0.53717   0.22901   0.03260
H          H       0.77099   0.30816   0.03260
H          H       0.69184   0.46283   0.03260
O          O       0.50143   0.84890   0.47338
O          O       0.15110   0.65253   0.47338
O          O       0.34747   0.49857   0.47338
O          O       0.49857   0.15110   0.02662
O          O       0.84890   0.34747   0.02662
O          O       0.65253   0.50143   0.02662
C          C       0.53571   0.84324   0.47719
C          C       0.15676   0.69247   0.47719
C          C       0.30753   0.46429   0.47719
C          C       0.46429   0.15676   0.02281
C          C       0.84324   0.30753   0.02281
C          C       0.69247   0.53571   0.02281
C          C       0.52943   0.80113   0.47186
C          C       0.19887   0.72830   0.47186
C          C       0.27170   0.47057   0.47186
C          C       0.47057   0.19887   0.02814
C          C       0.80113   0.27170   0.02814
C          C       0.72830   0.52943   0.02814
O          O       0.57047   0.87273   0.48786
O          O       0.12727   0.69774   0.48786
O          O       0.30226   0.42953   0.48786
O          O       0.42953   0.12727   0.01214
O          O       0.87273   0.30226   0.01214
O          O       0.69774   0.57047   0.01214
C          C       0.41725   0.51209   0.48081
C          C       0.48791   0.90516   0.48081
C          C       0.09484   0.58275   0.48081
C          C       0.58275   0.48791   0.01919
C          C       0.51209   0.09484   0.01919
C          C       0.90516   0.41725   0.01919
C          C       0.51956   0.51713   0.24796
C          C       0.48287   0.00243   0.24796
C          C       0.99757   0.48044   0.24796
C          C       0.48044   0.48287   0.25204
C          C       0.51713   0.99757   0.25204
C          C       0.00243   0.51956   0.25204
C          C       0.62741   0.53168   0.19527
C          C       0.46832   0.09573   0.19527
C          C       0.90427   0.37259   0.19527
C          C       0.37259   0.46832   0.30473
C          C       0.53168   0.90427   0.30473
C          C       0.09573   0.62741   0.30473
C          C       0.59513   0.53573   0.24815
C          C       0.46427   0.05940   0.24815
C          C       0.94060   0.40487   0.24815
C          C       0.40487   0.46427   0.25184
C          C       0.53573   0.94060   0.25184
C          C       0.05940   0.59513   0.25184
C          C       0.44437   0.48483   0.31083
C          C       0.51517   0.95954   0.31083
C          C       0.04046   0.55563   0.31083
C          C       0.55563   0.51517   0.18916
C          C       0.48483   0.04046   0.18916
C          C       0.95954   0.44437   0.18916
C          C       0.55107   0.57843   0.40670
C          C       0.42157   0.97264   0.40670
C          C       0.02736   0.44893   0.40670
C          C       0.44893   0.42157   0.09330
C          C       0.57843   0.02736   0.09330
C          C       0.97264   0.55107   0.09330
C          C       0.55793   0.61696   0.44716
C          C       0.38304   0.94097   0.44716
C          C       0.05903   0.44207   0.44716
C          C       0.44207   0.38304   0.05284
C          C       0.61696   0.05903   0.05284
C          C       0.94097   0.55793   0.05284
C          C       0.47272   0.44124   0.20834
C          C       0.55876   0.03148   0.20834
C          C       0.96852   0.52728   0.20834
C          C       0.52728   0.55876   0.29166
C          C       0.44124   0.96852   0.29166
C          C       0.03148   0.47272   0.29166
C          C       0.46117   0.36449   0.12012
C          C       0.63551   0.09668   0.12012
C          C       0.90332   0.53883   0.12012
C          C       0.53883   0.63551   0.37988
C          C       0.36449   0.90332   0.37988
C          C       0.09668   0.46117   0.37988
C          C       0.55103   0.49341   0.06924
C          C       0.50659   0.05762   0.06924
C          C       0.94238   0.44897   0.06924
C          C       0.44897   0.50659   0.43075
C          C       0.49341   0.94238   0.43075
C          C       0.05762   0.55103   0.43075
C          C       0.62141   0.50774   0.07966
C          C       0.49226   0.11367   0.07966
C          C       0.88633   0.37859   0.07966
C          C       0.37859   0.49226   0.42034
C          C       0.50774   0.88633   0.42034
C          C       0.11367   0.62141   0.42034
C          C       0.50914   0.57832   0.22242
C          C       0.42168   0.93082   0.22242
C          C       0.06918   0.49086   0.22242
C          C       0.49086   0.42168   0.27758
C          C       0.57832   0.06918   0.27758
C          C       0.93082   0.50914   0.27758
C          C       0.51490   0.61629   0.26524
C          C       0.38371   0.89861   0.26524
C          C       0.10139   0.48510   0.26524
C          C       0.48510   0.38371   0.23476
C          C       0.61629   0.10139   0.23476
C          C       0.89861   0.51490   0.23476
H          H       0.42203   0.53037   0.07049
H          H       0.46963   0.89166   0.07049
H          H       0.10834   0.57797   0.07049
H          H       0.57797   0.46963   0.42951
H          H       0.53037   0.10834   0.42951
H          H       0.89166   0.42203   0.42951
H          H       0.65684   0.54656   0.24638
H          H       0.45344   0.11028   0.24638
H          H       0.88972   0.34316   0.24638
H          H       0.34316   0.45344   0.25362
H          H       0.54656   0.88972   0.25362
H          H       0.11028   0.65684   0.25362
H          H       0.60182   0.55409   0.33743
H          H       0.44591   0.04773   0.33743
H          H       0.95227   0.39818   0.33743
H          H       0.39818   0.44591   0.16257
H          H       0.55409   0.95227   0.16257
H          H       0.04773   0.60182   0.16257
H          H       0.56316   0.56368   0.46961
H          H       0.43632   0.99948   0.46961
H          H       0.00052   0.43684   0.46961
H          H       0.43684   0.43632   0.03039
H          H       0.56368   0.00052   0.03039
H          H       0.99948   0.56316   0.03039
H          H       0.57670   0.63162   0.03521
H          H       0.36838   0.94508   0.03521
H          H       0.05492   0.42330   0.03521
H          H       0.42330   0.36838   0.46479
H          H       0.63162   0.05492   0.46479
H          H       0.94508   0.57670   0.46479
H          H       0.52290   0.48164   0.01312
H          H       0.51836   0.04126   0.01312
H          H       0.95874   0.47710   0.01312
H          H       0.47710   0.51836   0.48688
H          H       0.48164   0.95874   0.48688
H          H       0.04126   0.52290   0.48688
H          H       0.49039   0.56453   0.13534
H          H       0.43547   0.92586   0.13534
H          H       0.07414   0.50961   0.13534
H          H       0.50961   0.43547   0.36466
H          H       0.56453   0.07414   0.36466
H          H       0.92586   0.49039   0.36466
H          H       0.50092   0.63079   0.20861
H          H       0.36921   0.87013   0.20861
H          H       0.12987   0.49908   0.20861
H          H       0.49908   0.36921   0.29139
H          H       0.63079   0.12987   0.29139
H          H       0.87013   0.50092   0.29139
C          C       0.48339   0.72721   0.95548
C          C       0.27279   0.75618   0.95548
C          C       0.24382   0.51661   0.95548
C          C       0.51661   0.27279   0.54452
C          C       0.72721   0.24382   0.54452
C          C       0.75618   0.48339   0.54452
C          C       0.55711   0.75487   0.95862
C          C       0.24513   0.80224   0.95862
C          C       0.19776   0.44289   0.95862
C          C       0.44289   0.24513   0.54138
C          C       0.75487   0.19776   0.54138
C          C       0.80224   0.55711   0.54138
H          H       0.45223   0.70154   0.94979
H          H       0.29846   0.75069   0.94979
H          H       0.24931   0.54777   0.94979
H          H       0.54777   0.29846   0.55021
H          H       0.70154   0.24931   0.55021
H          H       0.75069   0.45223   0.55021
H          H       0.58377   0.75093   0.95570
H          H       0.24907   0.83284   0.95570
H          H       0.16716   0.41623   0.95570
H          H       0.41623   0.24907   0.54430
H          H       0.75093   0.16716   0.54430
H          H       0.83284   0.58377   0.54430
O          O       0.54561   0.67377   0.92583
O          O       0.32623   0.87184   0.92583
O          O       0.12816   0.45439   0.92583
O          O       0.45439   0.32623   0.57417
O          O       0.67377   0.12816   0.57417
O          O       0.87184   0.54561   0.57417
C          C       0.51104   0.67887   0.93663
C          C       0.32113   0.83217   0.93663
C          C       0.16783   0.48896   0.93663
C          C       0.48896   0.32113   0.56337
C          C       0.67887   0.16783   0.56337
C          C       0.83217   0.51104   0.56337
C          C       0.51717   0.72077   0.95103
C          C       0.27923   0.79640   0.95103
C          C       0.20360   0.48283   0.95103
C          C       0.48283   0.27923   0.54897
C          C       0.72077   0.20360   0.54897
C          C       0.79640   0.51717   0.54897
O          O       0.47623   0.64912   0.93844
O          O       0.35088   0.82711   0.93844
O          O       0.17289   0.52377   0.93844
O          O       0.52377   0.35088   0.56156
O          O       0.64912   0.17289   0.56156
O          O       0.82711   0.47623   0.56156
C          C       0.56319   0.79463   0.96914
C          C       0.20537   0.76856   0.96914
C          C       0.23144   0.43681   0.96914
C          C       0.43681   0.20537   0.53086
C          C       0.79463   0.23144   0.53086
C          C       0.76856   0.56319   0.53086
C          C       0.48947   0.76700   0.96558
C          C       0.23300   0.72247   0.96558
C          C       0.27753   0.51053   0.96558
C          C       0.51053   0.23300   0.53442
C          C       0.76700   0.27753   0.53442
C          C       0.72247   0.48947   0.53442
H          H       0.59436   0.82033   0.97360
H          H       0.17967   0.77403   0.97360
H          H       0.22597   0.40564   0.97360
H          H       0.40564   0.17967   0.52640
H          H       0.82033   0.22597   0.52640
H          H       0.77403   0.59436   0.52640
H          H       0.46283   0.77099   0.96739
H          H       0.22901   0.69184   0.96739
H          H       0.30816   0.53717   0.96739
H          H       0.53717   0.22901   0.53260
H          H       0.77099   0.30816   0.53260
H          H       0.69184   0.46283   0.53260
O          O       0.50143   0.84890   0.97338
O          O       0.15110   0.65253   0.97338
O          O       0.34747   0.49857   0.97338
O          O       0.49857   0.15110   0.52662
O          O       0.84890   0.34747   0.52662
O          O       0.65253   0.50143   0.52662
C          C       0.53571   0.84324   0.97719
C          C       0.15676   0.69247   0.97719
C          C       0.30753   0.46429   0.97719
C          C       0.46429   0.15676   0.52281
C          C       0.84324   0.30753   0.52281
C          C       0.69247   0.53571   0.52281
C          C       0.52943   0.80113   0.97186
C          C       0.19887   0.72830   0.97186
C          C       0.27170   0.47057   0.97186
C          C       0.47057   0.19887   0.52813
C          C       0.80113   0.27170   0.52813
C          C       0.72830   0.52943   0.52813
O          O       0.57047   0.87273   0.98786
O          O       0.12727   0.69774   0.98786
O          O       0.30226   0.42953   0.98786
O          O       0.42953   0.12727   0.51214
O          O       0.87273   0.30226   0.51214
O          O       0.69774   0.57047   0.51214
C          C       0.41725   0.51209   0.98081
C          C       0.48791   0.90516   0.98081
C          C       0.09484   0.58275   0.98081
C          C       0.58275   0.48791   0.51919
C          C       0.51209   0.09484   0.51919
C          C       0.90516   0.41725   0.51919
C          C       0.51956   0.51713   0.74796
C          C       0.48287   0.00243   0.74796
C          C       0.99757   0.48044   0.74796
C          C       0.48044   0.48287   0.75203
C          C       0.51713   0.99757   0.75203
C          C       0.00243   0.51956   0.75203
C          C       0.62741   0.53168   0.69527
C          C       0.46832   0.09573   0.69527
C          C       0.90427   0.37259   0.69527
C          C       0.37259   0.46832   0.80473
C          C       0.53168   0.90427   0.80473
C          C       0.09573   0.62741   0.80473
C          C       0.59513   0.53573   0.74815
C          C       0.46427   0.05940   0.74815
C          C       0.94060   0.40487   0.74815
C          C       0.40487   0.46427   0.75184
C          C       0.53573   0.94060   0.75184
C          C       0.05940   0.59513   0.75184
C          C       0.44437   0.48483   0.81083
C          C       0.51517   0.95954   0.81083
C          C       0.04046   0.55563   0.81083
C          C       0.55563   0.51517   0.68916
C          C       0.48483   0.04046   0.68916
C          C       0.95954   0.44437   0.68916
C          C       0.55107   0.57843   0.90670
C          C       0.42157   0.97264   0.90670
C          C       0.02736   0.44893   0.90670
C          C       0.44893   0.42157   0.59330
C          C       0.57843   0.02736   0.59330
C          C       0.97264   0.55107   0.59330
C          C       0.55793   0.61696   0.94716
C          C       0.38304   0.94097   0.94716
C          C       0.05903   0.44207   0.94716
C          C       0.44207   0.38304   0.55284
C          C       0.61696   0.05903   0.55284
C          C       0.94097   0.55793   0.55284
C          C       0.47272   0.44124   0.70834
C          C       0.55876   0.03148   0.70834
C          C       0.96852   0.52728   0.70834
C          C       0.52728   0.55876   0.79166
C          C       0.44124   0.96852   0.79166
C          C       0.03148   0.47272   0.79166
C          C       0.46117   0.36449   0.62013
C          C       0.63551   0.09668   0.62013
C          C       0.90332   0.53883   0.62013
C          C       0.53883   0.63551   0.87988
C          C       0.36449   0.90332   0.87988
C          C       0.09668   0.46117   0.87988
C          C       0.55103   0.49341   0.56925
C          C       0.50659   0.05762   0.56925
C          C       0.94238   0.44897   0.56925
C          C       0.44897   0.50659   0.93075
C          C       0.49341   0.94238   0.93075
C          C       0.05762   0.55103   0.93075
C          C       0.62141   0.50774   0.57965
C          C       0.49226   0.11367   0.57965
C          C       0.88633   0.37859   0.57965
C          C       0.37859   0.49226   0.92034
C          C       0.50774   0.88633   0.92034
C          C       0.11367   0.62141   0.92034
C          C       0.50914   0.57832   0.72241
C          C       0.42168   0.93082   0.72241
C          C       0.06918   0.49086   0.72241
C          C       0.49086   0.42168   0.77758
C          C       0.57832   0.06918   0.77758
C          C       0.93082   0.50914   0.77758
C          C       0.51490   0.61629   0.76524
C          C       0.38371   0.89861   0.76524
C          C       0.10139   0.48510   0.76524
C          C       0.48510   0.38371   0.73476
C          C       0.61629   0.10139   0.73476
C          C       0.89861   0.51490   0.73476
H          H       0.42203   0.53037   0.57049
H          H       0.46963   0.89166   0.57049
H          H       0.10834   0.57797   0.57049
H          H       0.57797   0.46963   0.92951
H          H       0.53037   0.10834   0.92951
H          H       0.89166   0.42203   0.92951
H          H       0.65684   0.54656   0.74638
H          H       0.45344   0.11028   0.74638
H          H       0.88972   0.34316   0.74638
H          H       0.34316   0.45344   0.75362
H          H       0.54656   0.88972   0.75362
H          H       0.11028   0.65684   0.75362
H          H       0.60182   0.55409   0.83743
H          H       0.44591   0.04773   0.83743
H          H       0.95227   0.39818   0.83743
H          H       0.39818   0.44591   0.66257
H          H       0.55409   0.95227   0.66257
H          H       0.04773   0.60182   0.66257
H          H       0.56316   0.56368   0.96961
H          H       0.43632   0.99948   0.96961
H          H       0.00052   0.43684   0.96961
H          H       0.43684   0.43632   0.53039
H          H       0.56368   0.00052   0.53039
H          H       0.99948   0.56316   0.53039
H          H       0.57670   0.63162   0.53521
H          H       0.36838   0.94508   0.53521
H          H       0.05492   0.42330   0.53521
H          H       0.42330   0.36838   0.96478
H          H       0.63162   0.05492   0.96478
H          H       0.94508   0.57670   0.96478
H          H       0.52290   0.48164   0.51312
H          H       0.51836   0.04126   0.51312
H          H       0.95874   0.47710   0.51312
H          H       0.47710   0.51836   0.98688
H          H       0.48164   0.95874   0.98688
H          H       0.04126   0.52290   0.98688
H          H       0.49039   0.56453   0.63534
H          H       0.43547   0.92586   0.63534
H          H       0.07414   0.50961   0.63534
H          H       0.50961   0.43547   0.86466
H          H       0.56453   0.07414   0.86466
H          H       0.92586   0.49039   0.86466
H          H       0.50092   0.63079   0.70861
H          H       0.36921   0.87013   0.70861
H          H       0.12987   0.49908   0.70861
H          H       0.49908   0.36921   0.79139
H          H       0.63079   0.12987   0.79139
H          H       0.87013   0.50092   0.79139
