data_crystal

_cell_length_a    67.25000
_cell_length_b    67.25000
_cell_length_c    7.50780
_cell_angle_alpha 90.00000
_cell_angle_beta  90.00000
_cell_angle_gamma 120.00000

_space_group_name_Hall 'P 1'
_space_group_name_H-M_alt  'P 1'

loop_
_symmetry_equiv_pos_as_xyz
'x,y,z'

loop_
_atom_site_label
_atom_site_type_symbol
_atom_site_fract_x
_atom_site_fract_y
_atom_site_fract_z
C          C       0.34943   0.75869   0.00704
C          C       0.24131   0.59074   0.00704
C          C       0.40926   0.65057   0.00704
C          C       0.65057   0.24131   0.49296
C          C       0.75869   0.40926   0.49296
C          C       0.59074   0.34943   0.49296
C          C       0.32896   0.74004   0.07047
C          C       0.25996   0.58892   0.07047
C          C       0.41108   0.67104   0.07047
C          C       0.67104   0.25996   0.42953
C          C       0.74004   0.41108   0.42953
C          C       0.58892   0.32896   0.42953
C          C       0.32480   0.71762   0.05198
C          C       0.28238   0.60718   0.05198
C          C       0.39282   0.67520   0.05198
C          C       0.67520   0.28238   0.44802
C          C       0.71762   0.39282   0.44802
C          C       0.60718   0.32480   0.44802
C          C       0.34079   0.71317   0.46567
C          C       0.28683   0.62762   0.46567
C          C       0.37238   0.65921   0.46567
C          C       0.65921   0.28683   0.03434
C          C       0.71317   0.37238   0.03434
C          C       0.62762   0.34079   0.03434
C          C       0.36089   0.73191   0.39615
C          C       0.26809   0.62898   0.39615
C          C       0.37102   0.63911   0.39615
C          C       0.63911   0.26809   0.10386
C          C       0.73191   0.37102   0.10386
C          C       0.62898   0.36089   0.10386
C          C       0.36530   0.75435   0.41914
C          C       0.24565   0.61095   0.41914
C          C       0.38905   0.63470   0.41914
C          C       0.63470   0.24565   0.08086
C          C       0.75435   0.38905   0.08086
C          C       0.61095   0.36530   0.08086
C          C       0.33694   0.68929   0.45444
C          C       0.31071   0.64765   0.45444
C          C       0.35235   0.66306   0.45444
C          C       0.66306   0.31071   0.04557
C          C       0.68929   0.35235   0.04557
C          C       0.64765   0.33694   0.04557
C          C       0.31459   0.67023   0.45334
C          C       0.32977   0.64436   0.45334
C          C       0.35564   0.68541   0.45334
C          C       0.68541   0.32977   0.04667
C          C       0.67023   0.35564   0.04667
C          C       0.64436   0.31459   0.04667
C          C       0.35488   0.78256   0.04396
C          C       0.21744   0.57232   0.04396
C          C       0.42768   0.64512   0.04396
C          C       0.64512   0.21744   0.45604
C          C       0.78256   0.42768   0.45604
C          C       0.57232   0.35488   0.45604
C          C       0.37710   0.79911   0.09822
C          C       0.20089   0.57799   0.09822
C          C       0.42201   0.62290   0.09822
C          C       0.62290   0.20089   0.40178
C          C       0.79911   0.42201   0.40178
C          C       0.57799   0.37710   0.40178
C          C       0.38187   0.82101   0.14872
C          C       0.17899   0.56086   0.14872
C          C       0.43914   0.61813   0.14872
C          C       0.61813   0.17899   0.35128
C          C       0.82101   0.43914   0.35128
C          C       0.56086   0.38187   0.35128
C          C       0.36479   0.82703   0.14177
C          C       0.17297   0.53776   0.14177
C          C       0.46224   0.63521   0.14177
C          C       0.63521   0.17297   0.35823
C          C       0.82703   0.46224   0.35823
C          C       0.53776   0.36479   0.35823
C          C       0.34259   0.81072   0.08579
C          C       0.18928   0.53187   0.08579
C          C       0.46813   0.65741   0.08579
C          C       0.65741   0.18928   0.41422
C          C       0.81072   0.46813   0.41422
C          C       0.53187   0.34259   0.41422
C          C       0.33771   0.78867   0.03649
C          C       0.21133   0.54904   0.03649
C          C       0.45096   0.66229   0.03649
C          C       0.66229   0.21133   0.46351
C          C       0.78867   0.45096   0.46351
C          C       0.54904   0.33771   0.46351
H          H       0.31668   0.74283   0.14345
H          H       0.25717   0.57385   0.14345
H          H       0.42615   0.68332   0.14345
H          H       0.68332   0.25717   0.35655
H          H       0.74283   0.42615   0.35655
H          H       0.57385   0.31668   0.35655
H          H       0.30950   0.70400   0.11353
H          H       0.29600   0.60550   0.11353
H          H       0.39450   0.69050   0.11353
H          H       0.69050   0.29600   0.38647
H          H       0.70400   0.39450   0.38647
H          H       0.60550   0.30950   0.38647
H          H       0.37326   0.72939   0.32239
H          H       0.27061   0.64387   0.32239
H          H       0.35613   0.62674   0.32239
H          H       0.62674   0.27061   0.17761
H          H       0.72939   0.35613   0.17761
H          H       0.64387   0.37326   0.17761
H          H       0.38111   0.76834   0.36672
H          H       0.23166   0.61277   0.36672
H          H       0.38723   0.61889   0.36672
H          H       0.61889   0.23166   0.13328
H          H       0.76834   0.38723   0.13328
H          H       0.61277   0.38111   0.13328
H          H       0.30012   0.67300   0.45503
H          H       0.32700   0.62712   0.45503
H          H       0.37288   0.69988   0.45503
H          H       0.69988   0.32700   0.04497
H          H       0.67300   0.37288   0.04497
H          H       0.62712   0.30012   0.04497
H          H       0.39062   0.79489   0.10835
H          H       0.20511   0.59573   0.10835
H          H       0.40427   0.60938   0.10835
H          H       0.60938   0.20511   0.39166
H          H       0.79489   0.40427   0.39166
H          H       0.59573   0.39062   0.39166
H          H       0.39888   0.83329   0.19603
H          H       0.16671   0.56559   0.19603
H          H       0.43441   0.60112   0.19603
H          H       0.60112   0.16671   0.30397
H          H       0.83329   0.43441   0.30397
H          H       0.56559   0.39888   0.30397
H          H       0.32893   0.81477   0.08533
H          H       0.18523   0.51416   0.08533
H          H       0.48584   0.67107   0.08533
H          H       0.67107   0.18523   0.41467
H          H       0.81477   0.48584   0.41467
H          H       0.51416   0.32893   0.41467
H          H       0.32046   0.77632   0.49441
H          H       0.22368   0.54414   0.49441
H          H       0.45586   0.67954   0.49441
H          H       0.67954   0.22368   0.00559
H          H       0.77632   0.45586   0.00559
H          H       0.54414   0.32046   0.00559
C          C       0.50463   0.36755   0.41372
C          C       0.63245   0.13708   0.41372
C          C       0.86292   0.49537   0.41372
C          C       0.49537   0.63245   0.08629
C          C       0.36755   0.86292   0.08629
C          C       0.13708   0.50463   0.08629
O          O       0.52143   0.36994   0.29204
O          O       0.63006   0.15149   0.29204
O          O       0.84851   0.47857   0.29204
O          O       0.47857   0.63006   0.20797
O          O       0.36994   0.84851   0.20797
O          O       0.15149   0.52143   0.20797
C          C       0.49707   0.61203   0.03878
C          C       0.38797   0.88504   0.03878
C          C       0.11496   0.50293   0.03878
C          C       0.50293   0.38797   0.46122
C          C       0.61203   0.11496   0.46122
C          C       0.88504   0.49707   0.46122
C          C       0.47913   0.59009   0.08364
C          C       0.40991   0.88904   0.08364
C          C       0.11096   0.52087   0.08364
C          C       0.52087   0.40991   0.41636
C          C       0.59009   0.11096   0.41636
C          C       0.88904   0.47913   0.41636
C          C       0.48043   0.57061   0.04091
C          C       0.42939   0.90982   0.04091
C          C       0.09018   0.51957   0.04091
C          C       0.51957   0.42939   0.45909
C          C       0.57061   0.09018   0.45909
C          C       0.90982   0.48043   0.45909
C          C       0.49980   0.57247   0.45373
C          C       0.42753   0.92733   0.45373
C          C       0.07267   0.50020   0.45373
C          C       0.50020   0.42753   0.04627
C          C       0.57247   0.07267   0.04627
C          C       0.92733   0.49980   0.04627
C          C       0.51748   0.59450   0.40436
C          C       0.40550   0.92298   0.40436
C          C       0.07702   0.48252   0.40436
C          C       0.48252   0.40550   0.09564
C          C       0.59450   0.07702   0.09564
C          C       0.92298   0.51748   0.09564
C          C       0.51625   0.61407   0.44813
C          C       0.38593   0.90218   0.44813
C          C       0.09782   0.48375   0.44813
C          C       0.48375   0.38593   0.05187
C          C       0.61407   0.09782   0.05187
C          C       0.90218   0.51625   0.05187
C          C       0.50053   0.55130   0.40438
C          C       0.44870   0.94923   0.40438
C          C       0.05077   0.49947   0.40438
C          C       0.49947   0.44870   0.09562
C          C       0.55130   0.05077   0.09562
C          C       0.94923   0.50053   0.09562
C          C       0.48042   0.53236   0.33924
C          C       0.46764   0.94806   0.33924
C          C       0.05194   0.51958   0.33924
C          C       0.51958   0.46764   0.16076
C          C       0.53236   0.05194   0.16076
C          C       0.94806   0.48042   0.16076
C          C       0.48013   0.51257   0.28107
C          C       0.48743   0.96756   0.28107
C          C       0.03244   0.51987   0.28107
C          C       0.51987   0.48743   0.21893
C          C       0.51257   0.03244   0.21893
C          C       0.96756   0.48013   0.21893
C          C       0.50006   0.51064   0.28469
C          C       0.48936   0.98942   0.28469
C          C       0.01058   0.49994   0.28469
C          C       0.49994   0.48936   0.21532
C          C       0.51064   0.01058   0.21532
C          C       0.98942   0.50006   0.21532
C          C       0.52007   0.52937   0.35767
C          C       0.47063   0.99070   0.35767
C          C       0.00930   0.47993   0.35767
C          C       0.47993   0.47063   0.14234
C          C       0.52937   0.00930   0.14234
C          C       0.99070   0.52007   0.14234
C          C       0.52052   0.54936   0.41882
C          C       0.45064   0.97116   0.41882
C          C       0.02884   0.47948   0.41882
C          C       0.47948   0.45064   0.08118
C          C       0.54936   0.02884   0.08118
C          C       0.97116   0.52052   0.08118
H          H       0.46401   0.58790   0.15223
H          H       0.41210   0.87611   0.15223
H          H       0.12389   0.53599   0.15223
H          H       0.53599   0.41210   0.34777
H          H       0.58790   0.12389   0.34777
H          H       0.87611   0.46401   0.34777
H          H       0.46619   0.55403   0.07732
H          H       0.44597   0.91216   0.07732
H          H       0.08784   0.53381   0.07732
H          H       0.53381   0.44597   0.42268
H          H       0.55403   0.08784   0.42268
H          H       0.91216   0.46619   0.42268
H          H       0.53212   0.59668   0.32923
H          H       0.40332   0.93544   0.32923
H          H       0.06456   0.46788   0.32923
H          H       0.46788   0.40332   0.17077
H          H       0.59668   0.06456   0.17077
H          H       0.93544   0.53212   0.17077
H          H       0.53020   0.63076   0.40928
H          H       0.36924   0.89944   0.40928
H          H       0.10056   0.46980   0.40928
H          H       0.46980   0.36924   0.09073
H          H       0.63076   0.10056   0.09073
H          H       0.89944   0.53020   0.09073
H          H       0.46388   0.49917   0.23235
H          H       0.50083   0.96471   0.23235
H          H       0.03529   0.53612   0.23235
H          H       0.53612   0.50083   0.26765
H          H       0.49917   0.03529   0.26765
H          H       0.96471   0.46388   0.26765
H          H       0.53579   0.52898   0.37082
H          H       0.47102   0.00681   0.37082
H          H       0.99319   0.46421   0.37082
H          H       0.46421   0.47102   0.12918
H          H       0.52898   0.99319   0.12918
H          H       0.00681   0.53579   0.12918
C          C       0.54250   0.56765   0.00243
C          C       0.43235   0.97485   0.00243
C          C       0.02515   0.45750   0.00243
C          C       0.45750   0.43235   0.49758
C          C       0.56765   0.02515   0.49758
C          C       0.97485   0.54250   0.49758
O          O       0.50896   0.65127   0.02558
O          O       0.34873   0.85769   0.02558
O          O       0.14231   0.49104   0.02558
O          O       0.49104   0.34873   0.47443
O          O       0.65127   0.14231   0.47443
O          O       0.85769   0.50896   0.47443
H          H       0.46464   0.53288   0.32933
H          H       0.46712   0.93176   0.32933
H          H       0.06824   0.53536   0.32933
H          H       0.53536   0.46712   0.17067
H          H       0.53288   0.06824   0.17067
H          H       0.93176   0.46464   0.17067
H          H       0.55480   0.57834   0.39728
H          H       0.42166   0.97646   0.39728
H          H       0.02354   0.44520   0.39728
H          H       0.44520   0.42166   0.10272
H          H       0.57834   0.02354   0.10272
H          H       0.97646   0.55480   0.10272
H          H       0.55058   0.55968   0.08240
H          H       0.44032   0.99090   0.08240
H          H       0.00910   0.44942   0.08240
H          H       0.44942   0.44032   0.41761
H          H       0.55968   0.00910   0.41761
H          H       0.99090   0.55058   0.41761
H          H       0.53949   0.57871   0.09427
H          H       0.42129   0.96078   0.09427
H          H       0.03922   0.46051   0.09427
H          H       0.46051   0.42129   0.40573
H          H       0.57871   0.03922   0.40573
H          H       0.96078   0.53949   0.40573
C          C       0.34943   0.75869   0.50705
C          C       0.24131   0.59074   0.50705
C          C       0.40926   0.65057   0.50705
C          C       0.65057   0.24131   0.99296
C          C       0.75869   0.40926   0.99296
C          C       0.59074   0.34943   0.99296
C          C       0.32896   0.74004   0.57048
C          C       0.25996   0.58892   0.57048
C          C       0.41108   0.67104   0.57048
C          C       0.67104   0.25996   0.92953
C          C       0.74004   0.41108   0.92953
C          C       0.58892   0.32896   0.92953
C          C       0.32480   0.71762   0.55198
C          C       0.28238   0.60718   0.55198
C          C       0.39282   0.67520   0.55198
C          C       0.67520   0.28238   0.94802
C          C       0.71762   0.39282   0.94802
C          C       0.60718   0.32480   0.94802
C          C       0.34079   0.71317   0.96567
C          C       0.28683   0.62762   0.96567
C          C       0.37238   0.65921   0.96567
C          C       0.65921   0.28683   0.53434
C          C       0.71317   0.37238   0.53434
C          C       0.62762   0.34079   0.53434
C          C       0.36089   0.73191   0.89615
C          C       0.26809   0.62898   0.89615
C          C       0.37102   0.63911   0.89615
C          C       0.63911   0.26809   0.60386
C          C       0.73191   0.37102   0.60386
C          C       0.62898   0.36089   0.60386
C          C       0.36530   0.75435   0.91915
C          C       0.24565   0.61095   0.91915
C          C       0.38905   0.63470   0.91915
C          C       0.63470   0.24565   0.58086
C          C       0.75435   0.38905   0.58086
C          C       0.61095   0.36530   0.58086
C          C       0.33694   0.68929   0.95444
C          C       0.31071   0.64765   0.95444
C          C       0.35235   0.66306   0.95444
C          C       0.66306   0.31071   0.54557
C          C       0.68929   0.35235   0.54557
C          C       0.64765   0.33694   0.54557
C          C       0.31459   0.67023   0.95334
C          C       0.32977   0.64436   0.95334
C          C       0.35564   0.68541   0.95334
C          C       0.68541   0.32977   0.54667
C          C       0.67023   0.35564   0.54667
C          C       0.64436   0.31459   0.54667
C          C       0.35488   0.78256   0.54396
C          C       0.21744   0.57232   0.54396
C          C       0.42768   0.64512   0.54396
C          C       0.64512   0.21744   0.95604
C          C       0.78256   0.42768   0.95604
C          C       0.57232   0.35488   0.95604
C          C       0.37710   0.79911   0.59822
C          C       0.20089   0.57799   0.59822
C          C       0.42201   0.62290   0.59822
C          C       0.62290   0.20089   0.90178
C          C       0.79911   0.42201   0.90178
C          C       0.57799   0.37710   0.90178
C          C       0.38187   0.82101   0.64872
C          C       0.17899   0.56086   0.64872
C          C       0.43914   0.61813   0.64872
C          C       0.61813   0.17899   0.85128
C          C       0.82101   0.43914   0.85128
C          C       0.56086   0.38187   0.85128
C          C       0.36479   0.82703   0.64177
C          C       0.17297   0.53776   0.64177
C          C       0.46224   0.63521   0.64177
C          C       0.63521   0.17297   0.85823
C          C       0.82703   0.46224   0.85823
C          C       0.53776   0.36479   0.85823
C          C       0.34259   0.81072   0.58579
C          C       0.18928   0.53187   0.58579
C          C       0.46813   0.65741   0.58579
C          C       0.65741   0.18928   0.91422
C          C       0.81072   0.46813   0.91422
C          C       0.53187   0.34259   0.91422
C          C       0.33771   0.78867   0.53649
C          C       0.21133   0.54904   0.53649
C          C       0.45096   0.66229   0.53649
C          C       0.66229   0.21133   0.96351
C          C       0.78867   0.45096   0.96351
C          C       0.54904   0.33771   0.96351
H          H       0.31668   0.74283   0.64345
H          H       0.25717   0.57385   0.64345
H          H       0.42615   0.68332   0.64345
H          H       0.68332   0.25717   0.85655
H          H       0.74283   0.42615   0.85655
H          H       0.57385   0.31668   0.85655
H          H       0.30950   0.70400   0.61353
H          H       0.29600   0.60550   0.61353
H          H       0.39450   0.69050   0.61353
H          H       0.69050   0.29600   0.88647
H          H       0.70400   0.39450   0.88647
H          H       0.60550   0.30950   0.88647
H          H       0.37326   0.72939   0.82239
H          H       0.27061   0.64387   0.82239
H          H       0.35613   0.62674   0.82239
H          H       0.62674   0.27061   0.67761
H          H       0.72939   0.35613   0.67761
H          H       0.64387   0.37326   0.67761
H          H       0.38111   0.76834   0.86672
H          H       0.23166   0.61277   0.86672
H          H       0.38723   0.61889   0.86672
H          H       0.61889   0.23166   0.63328
H          H       0.76834   0.38723   0.63328
H          H       0.61277   0.38111   0.63328
H          H       0.30012   0.67300   0.95503
H          H       0.32700   0.62712   0.95503
H          H       0.37288   0.69988   0.95503
H          H       0.69988   0.32700   0.54497
H          H       0.67300   0.37288   0.54497
H          H       0.62712   0.30012   0.54497
H          H       0.39062   0.79489   0.60835
H          H       0.20511   0.59573   0.60835
H          H       0.40427   0.60938   0.60835
H          H       0.60938   0.20511   0.89166
H          H       0.79489   0.40427   0.89166
H          H       0.59573   0.39062   0.89166
H          H       0.39888   0.83329   0.69603
H          H       0.16671   0.56559   0.69603
H          H       0.43441   0.60112   0.69603
H          H       0.60112   0.16671   0.80397
H          H       0.83329   0.43441   0.80397
H          H       0.56559   0.39888   0.80397
H          H       0.32893   0.81477   0.58533
H          H       0.18523   0.51416   0.58533
H          H       0.48584   0.67107   0.58533
H          H       0.67107   0.18523   0.91467
H          H       0.81477   0.48584   0.91467
H          H       0.51416   0.32893   0.91467
H          H       0.32046   0.77632   0.99442
H          H       0.22368   0.54414   0.99442
H          H       0.45586   0.67954   0.99442
H          H       0.67954   0.22368   0.50559
H          H       0.77632   0.45586   0.50559
H          H       0.54414   0.32046   0.50559
C          C       0.50463   0.36755   0.91372
C          C       0.63245   0.13708   0.91372
C          C       0.86292   0.49537   0.91372
C          C       0.49537   0.63245   0.58629
C          C       0.36755   0.86292   0.58629
C          C       0.13708   0.50463   0.58629
O          O       0.52143   0.36994   0.79204
O          O       0.63006   0.15149   0.79204
O          O       0.84851   0.47857   0.79204
O          O       0.47857   0.63006   0.70797
O          O       0.36994   0.84851   0.70797
O          O       0.15149   0.52143   0.70797
C          C       0.49707   0.61203   0.53878
C          C       0.38797   0.88504   0.53878
C          C       0.11496   0.50293   0.53878
C          C       0.50293   0.38797   0.96122
C          C       0.61203   0.11496   0.96122
C          C       0.88504   0.49707   0.96122
C          C       0.47913   0.59009   0.58365
C          C       0.40991   0.88904   0.58365
C          C       0.11096   0.52087   0.58365
C          C       0.52087   0.40991   0.91636
C          C       0.59009   0.11096   0.91636
C          C       0.88904   0.47913   0.91636
C          C       0.48043   0.57061   0.54091
C          C       0.42939   0.90982   0.54091
C          C       0.09018   0.51957   0.54091
C          C       0.51957   0.42939   0.95909
C          C       0.57061   0.09018   0.95909
C          C       0.90982   0.48043   0.95909
C          C       0.49980   0.57247   0.95373
C          C       0.42753   0.92733   0.95373
C          C       0.07267   0.50020   0.95373
C          C       0.50020   0.42753   0.54627
C          C       0.57247   0.07267   0.54627
C          C       0.92733   0.49980   0.54627
C          C       0.51748   0.59450   0.90436
C          C       0.40550   0.92298   0.90436
C          C       0.07702   0.48252   0.90436
C          C       0.48252   0.40550   0.59564
C          C       0.59450   0.07702   0.59564
C          C       0.92298   0.51748   0.59564
C          C       0.51625   0.61407   0.94813
C          C       0.38593   0.90218   0.94813
C          C       0.09782   0.48375   0.94813
C          C       0.48375   0.38593   0.55187
C          C       0.61407   0.09782   0.55187
C          C       0.90218   0.51625   0.55187
C          C       0.50053   0.55130   0.90438
C          C       0.44870   0.94923   0.90438
C          C       0.05077   0.49947   0.90438
C          C       0.49947   0.44870   0.59562
C          C       0.55130   0.05077   0.59562
C          C       0.94923   0.50053   0.59562
C          C       0.48042   0.53236   0.83924
C          C       0.46764   0.94806   0.83924
C          C       0.05194   0.51958   0.83924
C          C       0.51958   0.46764   0.66076
C          C       0.53236   0.05194   0.66076
C          C       0.94806   0.48042   0.66076
C          C       0.48013   0.51257   0.78107
C          C       0.48743   0.96756   0.78107
C          C       0.03244   0.51987   0.78107
C          C       0.51987   0.48743   0.71893
C          C       0.51257   0.03244   0.71893
C          C       0.96756   0.48013   0.71893
C          C       0.50006   0.51064   0.78469
C          C       0.48936   0.98942   0.78469
C          C       0.01058   0.49994   0.78469
C          C       0.49994   0.48936   0.71532
C          C       0.51064   0.01058   0.71532
C          C       0.98942   0.50006   0.71532
C          C       0.52007   0.52937   0.85767
C          C       0.47063   0.99070   0.85767
C          C       0.00930   0.47993   0.85767
C          C       0.47993   0.47063   0.64234
C          C       0.52937   0.00930   0.64234
C          C       0.99070   0.52007   0.64234
C          C       0.52052   0.54936   0.91882
C          C       0.45064   0.97116   0.91882
C          C       0.02884   0.47948   0.91882
C          C       0.47948   0.45064   0.58118
C          C       0.54936   0.02884   0.58118
C          C       0.97116   0.52052   0.58118
H          H       0.46401   0.58790   0.65223
H          H       0.41210   0.87611   0.65223
H          H       0.12389   0.53599   0.65223
H          H       0.53599   0.41210   0.84777
H          H       0.58790   0.12389   0.84777
H          H       0.87611   0.46401   0.84777
H          H       0.46619   0.55403   0.57733
H          H       0.44597   0.91216   0.57733
H          H       0.08784   0.53381   0.57733
H          H       0.53381   0.44597   0.92268
H          H       0.55403   0.08784   0.92268
H          H       0.91216   0.46619   0.92268
H          H       0.53212   0.59668   0.82923
H          H       0.40332   0.93544   0.82923
H          H       0.06456   0.46788   0.82923
H          H       0.46788   0.40332   0.67077
H          H       0.59668   0.06456   0.67077
H          H       0.93544   0.53212   0.67077
H          H       0.53020   0.63076   0.90928
H          H       0.36924   0.89944   0.90928
H          H       0.10056   0.46980   0.90928
H          H       0.46980   0.36924   0.59073
H          H       0.63076   0.10056   0.59073
H          H       0.89944   0.53020   0.59073
H          H       0.46388   0.49917   0.73235
H          H       0.50083   0.96471   0.73235
H          H       0.03529   0.53612   0.73235
H          H       0.53612   0.50083   0.76765
H          H       0.49917   0.03529   0.76765
H          H       0.96471   0.46388   0.76765
H          H       0.53579   0.52898   0.87082
H          H       0.47102   0.00681   0.87082
H          H       0.99319   0.46421   0.87082
H          H       0.46421   0.47102   0.62918
H          H       0.52898   0.99319   0.62918
H          H       0.00681   0.53579   0.62918
C          C       0.54250   0.56765   0.50243
C          C       0.43235   0.97485   0.50243
C          C       0.02515   0.45750   0.50243
C          C       0.45750   0.43235   0.99758
C          C       0.56765   0.02515   0.99758
C          C       0.97485   0.54250   0.99758
O          O       0.50896   0.65127   0.52558
O          O       0.34873   0.85769   0.52558
O          O       0.14231   0.49104   0.52558
O          O       0.49104   0.34873   0.97443
O          O       0.65127   0.14231   0.97443
O          O       0.85769   0.50896   0.97443
H          H       0.46464   0.53288   0.82934
H          H       0.46712   0.93176   0.82934
H          H       0.06824   0.53536   0.82934
H          H       0.53536   0.46712   0.67067
H          H       0.53288   0.06824   0.67067
H          H       0.93176   0.46464   0.67067
H          H       0.55480   0.57834   0.89729
H          H       0.42166   0.97646   0.89729
H          H       0.02354   0.44520   0.89729
H          H       0.44520   0.42166   0.60272
H          H       0.57834   0.02354   0.60272
H          H       0.97646   0.55480   0.60272
H          H       0.55058   0.55968   0.58239
H          H       0.44032   0.99090   0.58239
H          H       0.00910   0.44942   0.58239
H          H       0.44942   0.44032   0.91761
H          H       0.55968   0.00910   0.91761
H          H       0.99090   0.55058   0.91761
H          H       0.53949   0.57871   0.59427
H          H       0.42129   0.96078   0.59427
H          H       0.03922   0.46051   0.59427
H          H       0.46051   0.42129   0.90573
H          H       0.57871   0.03922   0.90573
H          H       0.96078   0.53949   0.90573
