data_crystal

_cell_length_a    41.27080
_cell_length_b    41.27080
_cell_length_c    8.55400
_cell_angle_alpha 90.00000
_cell_angle_beta  90.00000
_cell_angle_gamma 120.00000

_symmetry_space_group_name_Hall 'P 1'
_symmetry_space_group_name_H-M  'P 1'

loop_
_symmetry_equiv_pos_as_xyz
 'x,y,z'

loop_
_atom_site_label
_atom_site_type_symbol
_atom_site_fract_x
_atom_site_fract_y
_atom_site_fract_z
C          C       0.59969   0.22842   0.28770
C          C       0.77158   0.37127   0.28770
C          C       0.62873   0.40031   0.28770
C          C       0.40031   0.77158   0.21230
C          C       0.22842   0.62873   0.21230
C          C       0.37127   0.59969   0.21230
C          C       0.58243   0.18975   0.26518
C          C       0.81025   0.39268   0.26518
C          C       0.60732   0.41757   0.26518
C          C       0.41757   0.81025   0.23482
C          C       0.18975   0.60732   0.23482
C          C       0.39268   0.58243   0.23482
C          C       0.59839   0.17474   0.16395
C          C       0.82526   0.42365   0.16395
C          C       0.57635   0.40161   0.16395
C          C       0.40161   0.82526   0.33605
C          C       0.17474   0.57635   0.33605
C          C       0.42365   0.59839   0.33605
C          C       0.63282   0.19869   0.09379
C          C       0.80131   0.43413   0.09379
C          C       0.56587   0.36718   0.09379
C          C       0.36718   0.80131   0.40621
C          C       0.19869   0.56587   0.40621
C          C       0.43413   0.63282   0.40621
C          C       0.65001   0.23734   0.11509
C          C       0.76266   0.41267   0.11509
C          C       0.58733   0.34999   0.11509
C          C       0.34999   0.76266   0.38491
C          C       0.23734   0.58733   0.38491
C          C       0.41267   0.65001   0.38491
C          C       0.63343   0.25276   0.21088
C          C       0.74724   0.38067   0.21088
C          C       0.61933   0.36657   0.21088
C          C       0.36657   0.74724   0.28911
C          C       0.25276   0.61933   0.28911
C          C       0.38067   0.63343   0.28911
C          C       0.65051   0.29404   0.22498
C          C       0.70596   0.35647   0.22498
C          C       0.64353   0.34949   0.22498
C          C       0.34949   0.70596   0.27502
C          C       0.29404   0.64353   0.27502
C          C       0.35647   0.65051   0.27502
C          C       0.68958   0.31735   0.22615
C          C       0.68265   0.37223   0.22615
C          C       0.62777   0.31042   0.22615
C          C       0.31042   0.68265   0.27385
C          C       0.31735   0.62777   0.27385
C          C       0.37223   0.68958   0.27385
H          H       0.58678   0.23925   0.36620
H          H       0.76075   0.34753   0.36620
H          H       0.65247   0.41322   0.36620
H          H       0.41322   0.76075   0.13380
H          H       0.23925   0.65247   0.13380
H          H       0.34753   0.58678   0.13380
H          H       0.55673   0.17162   0.32664
H          H       0.82838   0.38511   0.32664
H          H       0.61489   0.44327   0.32664
H          H       0.44327   0.82838   0.17336
H          H       0.17162   0.61489   0.17336
H          H       0.38511   0.55673   0.17336
H          H       0.64564   0.18738   0.01736
H          H       0.81262   0.45826   0.01736
H          H       0.54174   0.35436   0.01736
H          H       0.35436   0.81262   0.48264
H          H       0.18738   0.54174   0.48264
H          H       0.45826   0.64564   0.48264
H          H       0.67561   0.25514   0.05189
H          H       0.74486   0.42047   0.05189
H          H       0.57953   0.32439   0.05189
H          H       0.32439   0.74486   0.44811
H          H       0.25514   0.57953   0.44811
H          H       0.42047   0.67561   0.44811
H          H       0.70731   0.30496   0.22329
H          H       0.69504   0.40235   0.22329
H          H       0.59765   0.29269   0.22329
H          H       0.29269   0.69504   0.27671
H          H       0.30496   0.59765   0.27671
H          H       0.40235   0.70731   0.27671
C          C       0.57299   0.45533   0.07810
C          C       0.54467   0.11766   0.07810
C          C       0.88234   0.42701   0.07810
C          C       0.42701   0.54467   0.42190
C          C       0.45533   0.88234   0.42190
C          C       0.11766   0.57299   0.42190
C          C       0.51075   0.49354   0.30090
C          C       0.50646   0.01721   0.30090
C          C       0.98279   0.48925   0.30090
C          C       0.48925   0.50646   0.19910
C          C       0.49354   0.98279   0.19910
C          C       0.01721   0.51075   0.19910
O          O       0.60746   0.47567   0.09071
O          O       0.52433   0.13179   0.09071
O          O       0.86821   0.39254   0.09071
O          O       0.39254   0.52433   0.40929
O          O       0.47567   0.86821   0.40929
O          O       0.13179   0.60746   0.40929
O          O       0.55450   0.41829   0.13445
O          O       0.58171   0.13621   0.13445
O          O       0.86379   0.44550   0.13445
O          O       0.44550   0.58171   0.36555
O          O       0.41829   0.86379   0.36555
O          O       0.13621   0.55450   0.36555
C          C       0.49357   0.45687   0.36356
C          C       0.54313   0.03670   0.36356
C          C       0.96330   0.50643   0.36356
C          C       0.50643   0.54313   0.13644
C          C       0.45687   0.96330   0.13644
C          C       0.03670   0.49357   0.13644
C          C       0.51357   0.44488   0.45535
C          C       0.55512   0.06869   0.45535
C          C       0.93131   0.48643   0.45535
C          C       0.48643   0.55512   0.04465
C          C       0.44488   0.93131   0.04465
C          C       0.06869   0.51357   0.04465
C          C       0.55146   0.46888   0.48824
C          C       0.53112   0.08258   0.48824
C          C       0.91742   0.44854   0.48824
C          C       0.44854   0.53112   0.01176
C          C       0.46888   0.91742   0.01176
C          C       0.08258   0.55146   0.01176
C          C       0.56885   0.50543   0.42947
C          C       0.49457   0.06342   0.42947
C          C       0.93658   0.43115   0.42947
C          C       0.43115   0.49457   0.07053
C          C       0.50543   0.93658   0.07053
C          C       0.06342   0.56885   0.07053
C          C       0.54896   0.51758   0.33785
C          C       0.48242   0.03138   0.33785
C          C       0.96862   0.45104   0.33785
C          C       0.45104   0.48242   0.16215
C          C       0.51758   0.96862   0.16215
C          C       0.03138   0.54896   0.16215
H          H       0.46464   0.43656   0.34374
H          H       0.56344   0.02808   0.34374
H          H       0.97192   0.53536   0.34374
H          H       0.53536   0.56344   0.15626
H          H       0.43656   0.97192   0.15626
H          H       0.02808   0.46464   0.15626
H          H       0.49924   0.41646   0.49926
H          H       0.58354   0.08278   0.49926
H          H       0.91722   0.50076   0.49926
H          H       0.50076   0.58354   0.00073
H          H       0.41646   0.91722   0.00073
H          H       0.08278   0.49924   0.00073
H          H       0.59811   0.52475   0.45316
H          H       0.47525   0.07336   0.45316
H          H       0.92664   0.40189   0.45316
H          H       0.40189   0.47525   0.04684
H          H       0.52475   0.92664   0.04684
H          H       0.07336   0.59811   0.04684
H          H       0.56454   0.54600   0.29719
H          H       0.45400   0.01854   0.29719
H          H       0.98146   0.43546   0.29719
H          H       0.43546   0.45400   0.20281
H          H       0.54600   0.98146   0.20281
H          H       0.01854   0.56454   0.20281
C          C       0.59969   0.22842   0.78770
C          C       0.77158   0.37127   0.78770
C          C       0.62873   0.40031   0.78770
C          C       0.40031   0.77158   0.71230
C          C       0.22842   0.62873   0.71230
C          C       0.37127   0.59969   0.71230
C          C       0.58243   0.18975   0.76518
C          C       0.81025   0.39268   0.76518
C          C       0.60732   0.41757   0.76518
C          C       0.41757   0.81025   0.73482
C          C       0.18975   0.60732   0.73482
C          C       0.39268   0.58243   0.73482
C          C       0.59839   0.17474   0.66395
C          C       0.82526   0.42365   0.66395
C          C       0.57635   0.40161   0.66395
C          C       0.40161   0.82526   0.83605
C          C       0.17474   0.57635   0.83605
C          C       0.42365   0.59839   0.83605
C          C       0.63282   0.19869   0.59378
C          C       0.80131   0.43413   0.59378
C          C       0.56587   0.36718   0.59378
C          C       0.36718   0.80131   0.90621
C          C       0.19869   0.56587   0.90621
C          C       0.43413   0.63282   0.90621
C          C       0.65001   0.23734   0.61509
C          C       0.76266   0.41267   0.61509
C          C       0.58733   0.34999   0.61509
C          C       0.34999   0.76266   0.88491
C          C       0.23734   0.58733   0.88491
C          C       0.41267   0.65001   0.88491
C          C       0.63343   0.25276   0.71088
C          C       0.74724   0.38067   0.71088
C          C       0.61933   0.36657   0.71088
C          C       0.36657   0.74724   0.78912
C          C       0.25276   0.61933   0.78912
C          C       0.38067   0.63343   0.78912
C          C       0.65051   0.29404   0.72497
C          C       0.70596   0.35647   0.72497
C          C       0.64353   0.34949   0.72497
C          C       0.34949   0.70596   0.77502
C          C       0.29404   0.64353   0.77502
C          C       0.35647   0.65051   0.77502
C          C       0.68958   0.31735   0.72615
C          C       0.68265   0.37223   0.72615
C          C       0.62777   0.31042   0.72615
C          C       0.31042   0.68265   0.77385
C          C       0.31735   0.62777   0.77385
C          C       0.37223   0.68958   0.77385
H          H       0.58678   0.23925   0.86620
H          H       0.76075   0.34753   0.86620
H          H       0.65247   0.41322   0.86620
H          H       0.41322   0.76075   0.63380
H          H       0.23925   0.65247   0.63380
H          H       0.34753   0.58678   0.63380
H          H       0.55673   0.17162   0.82663
H          H       0.82838   0.38511   0.82663
H          H       0.61489   0.44327   0.82663
H          H       0.44327   0.82838   0.67336
H          H       0.17162   0.61489   0.67336
H          H       0.38511   0.55673   0.67336
H          H       0.64564   0.18738   0.51736
H          H       0.81262   0.45826   0.51736
H          H       0.54174   0.35436   0.51736
H          H       0.35436   0.81262   0.98264
H          H       0.18738   0.54174   0.98264
H          H       0.45826   0.64564   0.98264
H          H       0.67561   0.25514   0.55189
H          H       0.74486   0.42047   0.55189
H          H       0.57953   0.32439   0.55189
H          H       0.32439   0.74486   0.94811
H          H       0.25514   0.57953   0.94811
H          H       0.42047   0.67561   0.94811
H          H       0.70731   0.30496   0.72329
H          H       0.69504   0.40235   0.72329
H          H       0.59765   0.29269   0.72329
H          H       0.29269   0.69504   0.77671
H          H       0.30496   0.59765   0.77671
H          H       0.40235   0.70731   0.77671
C          C       0.57299   0.45533   0.57810
C          C       0.54467   0.11766   0.57810
C          C       0.88234   0.42701   0.57810
C          C       0.42701   0.54467   0.92190
C          C       0.45533   0.88234   0.92190
C          C       0.11766   0.57299   0.92190
C          C       0.51075   0.49354   0.80090
C          C       0.50646   0.01721   0.80090
C          C       0.98279   0.48925   0.80090
C          C       0.48925   0.50646   0.69910
C          C       0.49354   0.98279   0.69910
C          C       0.01721   0.51075   0.69910
O          O       0.60746   0.47567   0.59071
O          O       0.52433   0.13179   0.59071
O          O       0.86821   0.39254   0.59071
O          O       0.39254   0.52433   0.90929
O          O       0.47567   0.86821   0.90929
O          O       0.13179   0.60746   0.90929
O          O       0.55450   0.41829   0.63445
O          O       0.58171   0.13621   0.63445
O          O       0.86379   0.44550   0.63445
O          O       0.44550   0.58171   0.86555
O          O       0.41829   0.86379   0.86555
O          O       0.13621   0.55450   0.86555
C          C       0.49357   0.45687   0.86356
C          C       0.54313   0.03670   0.86356
C          C       0.96330   0.50643   0.86356
C          C       0.50643   0.54313   0.63644
C          C       0.45687   0.96330   0.63644
C          C       0.03670   0.49357   0.63644
C          C       0.51357   0.44488   0.95535
C          C       0.55512   0.06869   0.95535
C          C       0.93131   0.48643   0.95535
C          C       0.48643   0.55512   0.54465
C          C       0.44488   0.93131   0.54465
C          C       0.06869   0.51357   0.54465
C          C       0.55146   0.46888   0.98825
C          C       0.53112   0.08258   0.98825
C          C       0.91742   0.44854   0.98825
C          C       0.44854   0.53112   0.51176
C          C       0.46888   0.91742   0.51176
C          C       0.08258   0.55146   0.51176
C          C       0.56885   0.50543   0.92947
C          C       0.49457   0.06342   0.92947
C          C       0.93658   0.43115   0.92947
C          C       0.43115   0.49457   0.57053
C          C       0.50543   0.93658   0.57053
C          C       0.06342   0.56885   0.57053
C          C       0.54896   0.51758   0.83784
C          C       0.48242   0.03138   0.83784
C          C       0.96862   0.45104   0.83784
C          C       0.45104   0.48242   0.66215
C          C       0.51758   0.96862   0.66215
C          C       0.03138   0.54896   0.66215
H          H       0.46464   0.43656   0.84373
H          H       0.56344   0.02808   0.84373
H          H       0.97192   0.53536   0.84373
H          H       0.53536   0.56344   0.65626
H          H       0.43656   0.97192   0.65626
H          H       0.02808   0.46464   0.65626
H          H       0.49924   0.41646   0.99926
H          H       0.58354   0.08278   0.99926
H          H       0.91722   0.50076   0.99926
H          H       0.50076   0.58354   0.50074
H          H       0.41646   0.91722   0.50074
H          H       0.08278   0.49924   0.50074
H          H       0.59811   0.52475   0.95317
H          H       0.47525   0.07336   0.95317
H          H       0.92664   0.40189   0.95317
H          H       0.40189   0.47525   0.54683
H          H       0.52475   0.92664   0.54683
H          H       0.07336   0.59811   0.54683
H          H       0.56454   0.54600   0.79719
H          H       0.45400   0.01854   0.79719
H          H       0.98146   0.43546   0.79719
H          H       0.43546   0.45400   0.70281
H          H       0.54600   0.98146   0.70281
H          H       0.01854   0.56454   0.70281
