data_crystal

_cell_length_a    36.69900
_cell_length_b    36.69900
_cell_length_c    7.41660
_cell_angle_alpha 90.00000
_cell_angle_beta  90.00000
_cell_angle_gamma 120.00000

_space_group_name_Hall 'P 1'
_space_group_name_H-M_alt  'P 1'

loop_
_symmetry_equiv_pos_as_xyz
'x,y,z'

loop_
_atom_site_label
_atom_site_type_symbol
_atom_site_fract_x
_atom_site_fract_y
_atom_site_fract_z
C          C       0.61158   0.43698   0.33420
C          C       0.56302   0.17460   0.33420
C          C       0.82540   0.38842   0.33420
C          C       0.38842   0.56302   0.33420
C          C       0.43698   0.82540   0.33420
C          C       0.17460   0.61158   0.33420
C          C       0.57306   0.41824   0.42454
C          C       0.58176   0.15482   0.42454
C          C       0.84518   0.42694   0.42454
C          C       0.42694   0.58176   0.42454
C          C       0.41824   0.84518   0.42454
C          C       0.15482   0.57306   0.42454
C          C       0.55664   0.37769   0.49586
C          C       0.62231   0.17895   0.49586
C          C       0.82105   0.44336   0.49586
C          C       0.44336   0.62231   0.49586
C          C       0.37769   0.82105   0.49586
C          C       0.17895   0.55664   0.49586
C          C       0.57930   0.35675   0.48162
C          C       0.64325   0.22255   0.48162
C          C       0.77745   0.42070   0.48162
C          C       0.42070   0.64325   0.48162
C          C       0.35675   0.77745   0.48162
C          C       0.22255   0.57930   0.48162
C          C       0.61831   0.37560   0.39188
C          C       0.62440   0.24271   0.39188
C          C       0.75729   0.38169   0.39188
C          C       0.38169   0.62440   0.39188
C          C       0.37560   0.75729   0.39188
C          C       0.24271   0.61831   0.39188
C          C       0.63388   0.41580   0.31601
C          C       0.58420   0.21808   0.31601
C          C       0.78192   0.36612   0.31601
C          C       0.36612   0.58420   0.31601
C          C       0.41580   0.78192   0.31601
C          C       0.21808   0.63388   0.31601
N          N       0.55130   0.44120   0.43955
N          N       0.55880   0.11010   0.43955
N          N       0.88990   0.44870   0.43955
N          N       0.44870   0.55880   0.43955
N          N       0.44120   0.88990   0.43955
N          N       0.11010   0.55130   0.43955
C          C       0.51332   0.42834   0.04587
C          C       0.57166   0.08498   0.04587
C          C       0.91502   0.48668   0.04587
C          C       0.48668   0.57166   0.04587
C          C       0.42834   0.91502   0.04587
C          C       0.08498   0.51332   0.04587
C          C       0.50708   0.46572   0.08491
C          C       0.53428   0.04136   0.08491
C          C       0.95864   0.49292   0.08491
C          C       0.49292   0.53428   0.08491
C          C       0.46572   0.95864   0.08491
C          C       0.04136   0.50708   0.08491
C          C       0.46610   0.45911   0.10299
C          C       0.54089   0.00699   0.10299
C          C       0.99301   0.53390   0.10299
C          C       0.53390   0.54089   0.10299
C          C       0.45911   0.99301   0.10299
C          C       0.00699   0.46610   0.10299
C          C       0.54155   0.50723   0.10638
C          C       0.49277   0.03432   0.10638
C          C       0.96568   0.45845   0.10638
C          C       0.45845   0.49277   0.10638
C          C       0.50723   0.96568   0.10638
C          C       0.03432   0.54155   0.10638
C          C       0.64305   0.35391   0.38127
C          C       0.64609   0.28914   0.38127
C          C       0.71086   0.35695   0.38127
C          C       0.35695   0.64609   0.38127
C          C       0.35391   0.71086   0.38127
C          C       0.28914   0.64305   0.38127
C          C       0.68705   0.37710   0.38009
C          C       0.62290   0.30995   0.38009
C          C       0.69005   0.31295   0.38009
C          C       0.31295   0.62290   0.38009
C          C       0.37710   0.69005   0.38009
C          C       0.30995   0.68705   0.38009
O          O       0.58308   0.51431   0.12053
O          O       0.48569   0.06877   0.12053
O          O       0.93123   0.41692   0.12053
O          O       0.41692   0.48569   0.12053
O          O       0.51431   0.93123   0.12053
O          O       0.06877   0.58308   0.12053
C          C       0.61421   0.55181   0.20845
C          C       0.44819   0.06240   0.20845
C          C       0.93760   0.38579   0.20845
C          C       0.38579   0.44819   0.20845
C          C       0.55181   0.93760   0.20845
C          C       0.06240   0.61421   0.20845
C          C       0.47668   0.39325   0.45661
C          C       0.60675   0.08343   0.45661
C          C       0.91657   0.52332   0.45661
C          C       0.52332   0.60675   0.45661
C          C       0.39325   0.91657   0.45661
C          C       0.08343   0.47668   0.45661
C          C       0.44626   0.36434   0.38740
C          C       0.63566   0.08192   0.38740
C          C       0.91808   0.55374   0.38740
C          C       0.55374   0.63566   0.38740
C          C       0.36434   0.91808   0.38740
C          C       0.08192   0.44626   0.38740
C          C       0.40962   0.32984   0.30721
C          C       0.67016   0.07978   0.30721
C          C       0.92022   0.59038   0.30721
C          C       0.59038   0.67016   0.30721
C          C       0.32984   0.92022   0.30721
C          C       0.07978   0.40962   0.30721
C          C       0.37328   0.33260   0.28101
C          C       0.66740   0.04068   0.28101
C          C       0.95932   0.62672   0.28101
C          C       0.62672   0.66740   0.28101
C          C       0.33260   0.95932   0.28101
C          C       0.04068   0.37328   0.28101
C          C       0.33733   0.29871   0.20610
C          C       0.70129   0.03862   0.20610
C          C       0.96138   0.66267   0.20610
C          C       0.66267   0.70129   0.20610
C          C       0.29871   0.96138   0.20610
C          C       0.03862   0.33733   0.20610
C          C       0.33768   0.26209   0.15708
C          C       0.73791   0.07559   0.15708
C          C       0.92441   0.66232   0.15708
C          C       0.66232   0.73791   0.15708
C          C       0.26209   0.92441   0.15708
C          C       0.07559   0.33768   0.15708
C          C       0.37397   0.25932   0.18284
C          C       0.74068   0.11465   0.18284
C          C       0.88535   0.62603   0.18284
C          C       0.62603   0.74068   0.18284
C          C       0.25932   0.88535   0.18284
C          C       0.11465   0.37397   0.18284
C          C       0.40999   0.29321   0.25750
C          C       0.70679   0.11678   0.25750
C          C       0.88322   0.59001   0.25750
C          C       0.59001   0.70679   0.25750
C          C       0.29321   0.88322   0.25750
C          C       0.11678   0.40999   0.25750
H          H       0.62372   0.46779   0.27410
H          H       0.53221   0.15593   0.27410
H          H       0.84407   0.37628   0.27410
H          H       0.37628   0.53221   0.27410
H          H       0.46779   0.84407   0.27410
H          H       0.15593   0.62372   0.27410
H          H       0.52700   0.36250   0.06686
H          H       0.63750   0.16450   0.06686
H          H       0.83550   0.47300   0.06686
H          H       0.47300   0.63750   0.06686
H          H       0.36250   0.83550   0.06686
H          H       0.16450   0.52700   0.06686
H          H       0.56695   0.32666   0.04824
H          H       0.67334   0.24029   0.04824
H          H       0.75971   0.43305   0.04824
H          H       0.43305   0.67334   0.04824
H          H       0.32666   0.75971   0.04824
H          H       0.24029   0.56695   0.04824
H          H       0.66263   0.43051   0.23799
H          H       0.56949   0.23212   0.23799
H          H       0.76788   0.33737   0.23799
H          H       0.33737   0.56949   0.23799
H          H       0.43051   0.76788   0.23799
H          H       0.23212   0.66263   0.23799
H          H       0.56408   0.46941   0.36808
H          H       0.53059   0.09467   0.36808
H          H       0.90533   0.43592   0.36808
H          H       0.43592   0.53059   0.36808
H          H       0.46941   0.90533   0.36808
H          H       0.09467   0.56408   0.36808
H          H       0.51656   0.41537   0.17171
H          H       0.58463   0.10119   0.17171
H          H       0.89881   0.48344   0.17171
H          H       0.48344   0.58463   0.17171
H          H       0.41537   0.89881   0.17171
H          H       0.10119   0.51656   0.17171
H          H       0.43978   0.42748   0.10628
H          H       0.57252   0.01230   0.10628
H          H       0.98770   0.56022   0.10628
H          H       0.56022   0.57252   0.10628
H          H       0.42748   0.98770   0.10628
H          H       0.01230   0.43978   0.10628
H          H       0.70287   0.41099   0.38164
H          H       0.58901   0.29188   0.38164
H          H       0.70812   0.29713   0.38164
H          H       0.29713   0.58901   0.38164
H          H       0.41099   0.70812   0.38164
H          H       0.29188   0.70287   0.38164
H          H       0.62622   0.57951   0.11799
H          H       0.42049   0.04671   0.11799
H          H       0.95329   0.37378   0.11799
H          H       0.37378   0.42049   0.11799
H          H       0.57951   0.95329   0.11799
H          H       0.04671   0.62622   0.11799
H          H       0.64116   0.54776   0.24770
H          H       0.45224   0.09340   0.24770
H          H       0.90660   0.35884   0.24770
H          H       0.35884   0.45224   0.24770
H          H       0.54776   0.90660   0.24770
H          H       0.09340   0.64116   0.24770
H          H       0.60137   0.55780   0.33301
H          H       0.44220   0.04357   0.33301
H          H       0.95643   0.39863   0.33301
H          H       0.39863   0.44220   0.33301
H          H       0.55780   0.95643   0.33301
H          H       0.04357   0.60137   0.33301
H          H       0.37272   0.36072   0.32024
H          H       0.63928   0.01200   0.32024
H          H       0.98800   0.62728   0.32024
H          H       0.62728   0.63928   0.32024
H          H       0.36072   0.98800   0.32024
H          H       0.01200   0.37272   0.32024
H          H       0.30927   0.30086   0.18564
H          H       0.69914   0.00841   0.18564
H          H       0.99159   0.69073   0.18564
H          H       0.69073   0.69914   0.18564
H          H       0.30086   0.99159   0.18564
H          H       0.00841   0.30927   0.18564
H          H       0.30997   0.23601   0.09760
H          H       0.76399   0.07396   0.09760
H          H       0.92604   0.69003   0.09760
H          H       0.69003   0.76399   0.09760
H          H       0.23601   0.92604   0.09760
H          H       0.07396   0.30997   0.09760
H          H       0.37428   0.23107   0.14375
H          H       0.76893   0.14321   0.14375
H          H       0.85679   0.62572   0.14375
H          H       0.62572   0.76893   0.14375
H          H       0.23107   0.85679   0.14375
H          H       0.14321   0.37428   0.14375
H          H       0.43801   0.29091   0.27724
H          H       0.70909   0.14710   0.27724
H          H       0.85290   0.56199   0.27724
H          H       0.56199   0.70909   0.27724
H          H       0.29091   0.85290   0.27724
H          H       0.14710   0.43801   0.27724
C          C       0.61158   0.43698   0.83420
C          C       0.56302   0.17460   0.83420
C          C       0.82540   0.38842   0.83420
C          C       0.38842   0.56302   0.83420
C          C       0.43698   0.82540   0.83420
C          C       0.17460   0.61158   0.83420
C          C       0.57306   0.41824   0.92454
C          C       0.58176   0.15482   0.92454
C          C       0.84518   0.42694   0.92454
C          C       0.42694   0.58176   0.92454
C          C       0.41824   0.84518   0.92454
C          C       0.15482   0.57306   0.92454
C          C       0.55664   0.37769   0.99586
C          C       0.62231   0.17895   0.99586
C          C       0.82105   0.44336   0.99586
C          C       0.44336   0.62231   0.99586
C          C       0.37769   0.82105   0.99586
C          C       0.17895   0.55664   0.99586
C          C       0.57930   0.35675   0.98162
C          C       0.64325   0.22255   0.98162
C          C       0.77745   0.42070   0.98162
C          C       0.42070   0.64325   0.98162
C          C       0.35675   0.77745   0.98162
C          C       0.22255   0.57930   0.98162
C          C       0.61831   0.37560   0.89188
C          C       0.62440   0.24271   0.89188
C          C       0.75729   0.38169   0.89188
C          C       0.38169   0.62440   0.89188
C          C       0.37560   0.75729   0.89188
C          C       0.24271   0.61831   0.89188
C          C       0.63388   0.41580   0.81601
C          C       0.58420   0.21808   0.81601
C          C       0.78192   0.36612   0.81601
C          C       0.36612   0.58420   0.81601
C          C       0.41580   0.78192   0.81601
C          C       0.21808   0.63388   0.81601
N          N       0.55130   0.44120   0.93955
N          N       0.55880   0.11010   0.93955
N          N       0.88990   0.44870   0.93955
N          N       0.44870   0.55880   0.93955
N          N       0.44120   0.88990   0.93955
N          N       0.11010   0.55130   0.93955
C          C       0.51332   0.42834   0.54587
C          C       0.57166   0.08498   0.54587
C          C       0.91502   0.48668   0.54587
C          C       0.48668   0.57166   0.54587
C          C       0.42834   0.91502   0.54587
C          C       0.08498   0.51332   0.54587
C          C       0.50708   0.46572   0.58491
C          C       0.53428   0.04136   0.58491
C          C       0.95864   0.49292   0.58491
C          C       0.49292   0.53428   0.58491
C          C       0.46572   0.95864   0.58491
C          C       0.04136   0.50708   0.58491
C          C       0.46610   0.45911   0.60299
C          C       0.54089   0.00699   0.60299
C          C       0.99301   0.53390   0.60299
C          C       0.53390   0.54089   0.60299
C          C       0.45911   0.99301   0.60299
C          C       0.00699   0.46610   0.60299
C          C       0.54155   0.50723   0.60638
C          C       0.49277   0.03432   0.60638
C          C       0.96568   0.45845   0.60638
C          C       0.45845   0.49277   0.60638
C          C       0.50723   0.96568   0.60638
C          C       0.03432   0.54155   0.60638
C          C       0.64305   0.35391   0.88127
C          C       0.64609   0.28914   0.88127
C          C       0.71086   0.35695   0.88127
C          C       0.35695   0.64609   0.88127
C          C       0.35391   0.71086   0.88127
C          C       0.28914   0.64305   0.88127
C          C       0.68705   0.37710   0.88009
C          C       0.62290   0.30995   0.88009
C          C       0.69005   0.31295   0.88009
C          C       0.31295   0.62290   0.88009
C          C       0.37710   0.69005   0.88009
C          C       0.30995   0.68705   0.88009
O          O       0.58308   0.51431   0.62053
O          O       0.48569   0.06877   0.62053
O          O       0.93123   0.41692   0.62053
O          O       0.41692   0.48569   0.62053
O          O       0.51431   0.93123   0.62053
O          O       0.06877   0.58308   0.62053
C          C       0.61421   0.55181   0.70845
C          C       0.44819   0.06240   0.70845
C          C       0.93760   0.38579   0.70845
C          C       0.38579   0.44819   0.70845
C          C       0.55181   0.93760   0.70845
C          C       0.06240   0.61421   0.70845
C          C       0.47668   0.39325   0.95661
C          C       0.60675   0.08343   0.95661
C          C       0.91657   0.52332   0.95661
C          C       0.52332   0.60675   0.95661
C          C       0.39325   0.91657   0.95661
C          C       0.08343   0.47668   0.95661
C          C       0.44626   0.36434   0.88740
C          C       0.63566   0.08192   0.88740
C          C       0.91808   0.55374   0.88740
C          C       0.55374   0.63566   0.88740
C          C       0.36434   0.91808   0.88740
C          C       0.08192   0.44626   0.88740
C          C       0.40962   0.32984   0.80721
C          C       0.67016   0.07978   0.80721
C          C       0.92022   0.59038   0.80721
C          C       0.59038   0.67016   0.80721
C          C       0.32984   0.92022   0.80721
C          C       0.07978   0.40962   0.80721
C          C       0.37328   0.33260   0.78101
C          C       0.66740   0.04068   0.78101
C          C       0.95932   0.62672   0.78101
C          C       0.62672   0.66740   0.78101
C          C       0.33260   0.95932   0.78101
C          C       0.04068   0.37328   0.78101
C          C       0.33733   0.29871   0.70611
C          C       0.70129   0.03862   0.70611
C          C       0.96138   0.66267   0.70611
C          C       0.66267   0.70129   0.70611
C          C       0.29871   0.96138   0.70611
C          C       0.03862   0.33733   0.70611
C          C       0.33768   0.26209   0.65708
C          C       0.73791   0.07559   0.65708
C          C       0.92441   0.66232   0.65708
C          C       0.66232   0.73791   0.65708
C          C       0.26209   0.92441   0.65708
C          C       0.07559   0.33768   0.65708
C          C       0.37397   0.25932   0.68284
C          C       0.74068   0.11465   0.68284
C          C       0.88535   0.62603   0.68284
C          C       0.62603   0.74068   0.68284
C          C       0.25932   0.88535   0.68284
C          C       0.11465   0.37397   0.68284
C          C       0.40999   0.29321   0.75750
C          C       0.70679   0.11678   0.75750
C          C       0.88322   0.59001   0.75750
C          C       0.59001   0.70679   0.75750
C          C       0.29321   0.88322   0.75750
C          C       0.11678   0.40999   0.75750
H          H       0.62372   0.46779   0.77410
H          H       0.53221   0.15593   0.77410
H          H       0.84407   0.37628   0.77410
H          H       0.37628   0.53221   0.77410
H          H       0.46779   0.84407   0.77410
H          H       0.15593   0.62372   0.77410
H          H       0.52700   0.36250   0.56686
H          H       0.63750   0.16450   0.56686
H          H       0.83550   0.47300   0.56686
H          H       0.47300   0.63750   0.56686
H          H       0.36250   0.83550   0.56686
H          H       0.16450   0.52700   0.56686
H          H       0.56695   0.32666   0.54824
H          H       0.67334   0.24029   0.54824
H          H       0.75971   0.43305   0.54824
H          H       0.43305   0.67334   0.54824
H          H       0.32666   0.75971   0.54824
H          H       0.24029   0.56695   0.54824
H          H       0.66263   0.43051   0.73799
H          H       0.56949   0.23212   0.73799
H          H       0.76788   0.33737   0.73799
H          H       0.33737   0.56949   0.73799
H          H       0.43051   0.76788   0.73799
H          H       0.23212   0.66263   0.73799
H          H       0.56408   0.46941   0.86808
H          H       0.53059   0.09467   0.86808
H          H       0.90533   0.43592   0.86808
H          H       0.43592   0.53059   0.86808
H          H       0.46941   0.90533   0.86808
H          H       0.09467   0.56408   0.86808
H          H       0.51656   0.41537   0.67171
H          H       0.58463   0.10119   0.67171
H          H       0.89881   0.48344   0.67171
H          H       0.48344   0.58463   0.67171
H          H       0.41537   0.89881   0.67171
H          H       0.10119   0.51656   0.67171
H          H       0.43978   0.42748   0.60628
H          H       0.57252   0.01230   0.60628
H          H       0.98770   0.56022   0.60628
H          H       0.56022   0.57252   0.60628
H          H       0.42748   0.98770   0.60628
H          H       0.01230   0.43978   0.60628
H          H       0.70287   0.41099   0.88164
H          H       0.58901   0.29188   0.88164
H          H       0.70812   0.29713   0.88164
H          H       0.29713   0.58901   0.88164
H          H       0.41099   0.70812   0.88164
H          H       0.29188   0.70287   0.88164
H          H       0.62622   0.57951   0.61799
H          H       0.42049   0.04671   0.61799
H          H       0.95329   0.37378   0.61799
H          H       0.37378   0.42049   0.61799
H          H       0.57951   0.95329   0.61799
H          H       0.04671   0.62622   0.61799
H          H       0.64116   0.54776   0.74770
H          H       0.45224   0.09340   0.74770
H          H       0.90660   0.35884   0.74770
H          H       0.35884   0.45224   0.74770
H          H       0.54776   0.90660   0.74770
H          H       0.09340   0.64116   0.74770
H          H       0.60137   0.55780   0.83301
H          H       0.44220   0.04357   0.83301
H          H       0.95643   0.39863   0.83301
H          H       0.39863   0.44220   0.83301
H          H       0.55780   0.95643   0.83301
H          H       0.04357   0.60137   0.83301
H          H       0.37272   0.36072   0.82024
H          H       0.63928   0.01200   0.82024
H          H       0.98800   0.62728   0.82024
H          H       0.62728   0.63928   0.82024
H          H       0.36072   0.98800   0.82024
H          H       0.01200   0.37272   0.82024
H          H       0.30927   0.30086   0.68564
H          H       0.69914   0.00841   0.68564
H          H       0.99159   0.69073   0.68564
H          H       0.69073   0.69914   0.68564
H          H       0.30086   0.99159   0.68564
H          H       0.00841   0.30927   0.68564
H          H       0.30997   0.23601   0.59760
H          H       0.76399   0.07396   0.59760
H          H       0.92604   0.69003   0.59760
H          H       0.69003   0.76399   0.59760
H          H       0.23601   0.92604   0.59760
H          H       0.07396   0.30997   0.59760
H          H       0.37428   0.23107   0.64375
H          H       0.76893   0.14321   0.64375
H          H       0.85679   0.62572   0.64375
H          H       0.62572   0.76893   0.64375
H          H       0.23107   0.85679   0.64375
H          H       0.14321   0.37428   0.64375
H          H       0.43801   0.29091   0.77724
H          H       0.70909   0.14710   0.77724
H          H       0.85290   0.56199   0.77724
H          H       0.56199   0.70909   0.77724
H          H       0.29091   0.85290   0.77724
H          H       0.14710   0.43801   0.77724
