data_crystal

_cell_length_a    36.83120
_cell_length_b    36.83120
_cell_length_c    9.40320
_cell_angle_alpha 90.00000
_cell_angle_beta  90.00000
_cell_angle_gamma 120.00000

_space_group_name_Hall 'P 1'
_space_group_name_H-M_alt  'P 1'

loop_
_symmetry_equiv_pos_as_xyz
 'x,y,z'

loop_
_atom_site_label
_atom_site_type_symbol
_atom_site_fract_x
_atom_site_fract_y
_atom_site_fract_z
C          C       0.60231   0.42978   0.40816
C          C       0.57022   0.17253   0.40816
C          C       0.82747   0.39769   0.40816
C          C       0.39769   0.57022   0.40816
C          C       0.42978   0.82747   0.40816
C          C       0.17253   0.60231   0.40816
C          C       0.56589   0.41091   0.32481
C          C       0.58909   0.15498   0.32481
C          C       0.84502   0.43411   0.32481
C          C       0.43411   0.58909   0.32481
C          C       0.41091   0.84502   0.32481
C          C       0.15498   0.56589   0.32481
C          C       0.55327   0.37162   0.26390
C          C       0.62838   0.18165   0.26390
C          C       0.81835   0.44673   0.26390
C          C       0.44673   0.62838   0.26390
C          C       0.37162   0.81835   0.26390
C          C       0.18165   0.55327   0.26390
C          C       0.57761   0.35254   0.27999
C          C       0.64746   0.22507   0.27999
C          C       0.77493   0.42239   0.27999
C          C       0.42239   0.64746   0.27999
C          C       0.35254   0.77493   0.27999
C          C       0.22507   0.57761   0.27999
C          C       0.61436   0.37152   0.36261
C          C       0.62848   0.24284   0.36261
C          C       0.75716   0.38564   0.36261
C          C       0.38564   0.62848   0.36261
C          C       0.37152   0.75716   0.36261
C          C       0.24284   0.61436   0.36261
C          C       0.62600   0.41009   0.42874
C          C       0.58991   0.21591   0.42874
C          C       0.78409   0.37400   0.42874
C          C       0.37400   0.58991   0.42874
C          C       0.41009   0.78409   0.42874
C          C       0.21591   0.62600   0.42874
N          N       0.54191   0.43174   0.30620
N          N       0.56826   0.11017   0.30620
N          N       0.88983   0.45809   0.30620
N          N       0.45809   0.56826   0.30620
N          N       0.43174   0.88983   0.30620
N          N       0.11017   0.54191   0.30620
C          C       0.53025   0.43993   0.16630
C          C       0.56007   0.09032   0.16630
C          C       0.90968   0.46975   0.16630
C          C       0.46975   0.56007   0.16630
C          C       0.43993   0.90968   0.16630
C          C       0.09032   0.53025   0.16630
C          C       0.51436   0.47094   0.17668
C          C       0.52906   0.04342   0.17668
C          C       0.95658   0.48564   0.17668
C          C       0.48564   0.52906   0.17668
C          C       0.47094   0.95658   0.17668
C          C       0.04342   0.51436   0.17668
C          C       0.47114   0.45714   0.18367
C          C       0.54286   0.01400   0.18367
C          C       0.98600   0.52886   0.18367
C          C       0.52886   0.54286   0.18367
C          C       0.45714   0.98600   0.18367
C          C       0.01400   0.47114   0.18367
C          C       0.54359   0.51422   0.18140
C          C       0.48578   0.02937   0.18140
C          C       0.97063   0.45641   0.18140
C          C       0.45641   0.48578   0.18140
C          C       0.51422   0.97063   0.18140
C          C       0.02937   0.54359   0.18140
C          C       0.64112   0.35190   0.37474
C          C       0.64810   0.28922   0.37474
C          C       0.71078   0.35888   0.37474
C          C       0.35888   0.64810   0.37474
C          C       0.35190   0.71078   0.37474
C          C       0.28922   0.64112   0.37474
C          C       0.68502   0.37694   0.37585
C          C       0.62306   0.30808   0.37585
C          C       0.69192   0.31498   0.37585
C          C       0.31498   0.62306   0.37585
C          C       0.37694   0.69192   0.37585
C          C       0.30808   0.68502   0.37585
O          O       0.58676   0.52693   0.18154
O          O       0.47307   0.05983   0.18154
O          O       0.94017   0.41324   0.18154
O          O       0.41324   0.47307   0.18154
O          O       0.52693   0.94017   0.18154
O          O       0.05983   0.58676   0.18154
C          C       0.61700   0.57033   0.19944
C          C       0.42967   0.04667   0.19944
C          C       0.95333   0.38300   0.19944
C          C       0.38300   0.42967   0.19944
C          C       0.57033   0.95333   0.19944
C          C       0.04667   0.61700   0.19944
C          C       0.49985   0.40114   0.09313
C          C       0.59886   0.09871   0.09313
C          C       0.90129   0.50015   0.09313
C          C       0.50015   0.59886   0.09313
C          C       0.40114   0.90129   0.09313
C          C       0.09871   0.49985   0.09313
C          C       0.47587   0.37058   0.02593
C          C       0.62942   0.10529   0.02593
C          C       0.89471   0.52413   0.02593
C          C       0.52413   0.62942   0.02593
C          C       0.37058   0.89471   0.02593
C          C       0.10529   0.47587   0.02593
C          C       0.44867   0.33520   0.43908
C          C       0.66480   0.11347   0.43908
C          C       0.88653   0.55133   0.43908
C          C       0.55133   0.66480   0.43908
C          C       0.33520   0.88653   0.43908
C          C       0.11347   0.44867   0.43908
C          C       0.45562   0.30125   0.42684
C          C       0.69875   0.15437   0.42684
C          C       0.84563   0.54438   0.42684
C          C       0.54438   0.69875   0.42684
C          C       0.30125   0.84563   0.42684
C          C       0.15437   0.45562   0.42684
C          C       0.43082   0.26806   0.33509
C          C       0.73194   0.16276   0.33509
C          C       0.83724   0.56918   0.33509
C          C       0.56918   0.73194   0.33509
C          C       0.26806   0.83724   0.33509
C          C       0.16276   0.43082   0.33509
C          C       0.39911   0.26878   0.25546
C          C       0.73122   0.13033   0.25546
C          C       0.86967   0.60089   0.25546
C          C       0.60089   0.73122   0.25546
C          C       0.26878   0.86967   0.25546
C          C       0.13033   0.39911   0.25546
C          C       0.39203   0.30258   0.26797
C          C       0.69742   0.08945   0.26797
C          C       0.91055   0.60797   0.26797
C          C       0.60797   0.69742   0.26797
C          C       0.30258   0.91055   0.26797
C          C       0.08945   0.39203   0.26797
C          C       0.41678   0.33579   0.35972
C          C       0.66421   0.08099   0.35972
C          C       0.91901   0.58322   0.35972
C          C       0.58322   0.66421   0.35972
C          C       0.33579   0.91901   0.35972
C          C       0.08099   0.41678   0.35972
H          H       0.61271   0.46016   0.45573
H          H       0.53984   0.15255   0.45573
H          H       0.84745   0.38729   0.45573
H          H       0.38729   0.53984   0.45573
H          H       0.46016   0.84745   0.45573
H          H       0.15255   0.61271   0.45573
H          H       0.52447   0.35520   0.20508
H          H       0.64480   0.16927   0.20508
H          H       0.83073   0.47553   0.20508
H          H       0.47553   0.64480   0.20508
H          H       0.35520   0.83073   0.20508
H          H       0.16927   0.52447   0.20508
H          H       0.56793   0.32326   0.22519
H          H       0.67674   0.24467   0.22519
H          H       0.75533   0.43207   0.22519
H          H       0.43207   0.67674   0.22519
H          H       0.32326   0.75533   0.22519
H          H       0.24467   0.56793   0.22519
H          H       0.65346   0.42513   0.49620
H          H       0.57487   0.22833   0.49620
H          H       0.77167   0.34654   0.49620
H          H       0.34654   0.57487   0.49620
H          H       0.42513   0.77167   0.49620
H          H       0.22833   0.65346   0.49620
H          H       0.54773   0.45517   0.37985
H          H       0.54483   0.09256   0.37985
H          H       0.90744   0.45227   0.37985
H          H       0.45227   0.54483   0.37985
H          H       0.45517   0.90744   0.37985
H          H       0.09256   0.54773   0.37985
H          H       0.55922   0.45470   0.10181
H          H       0.54530   0.10452   0.10181
H          H       0.89548   0.44078   0.10181
H          H       0.44078   0.54530   0.10181
H          H       0.45470   0.89548   0.10181
H          H       0.10452   0.55922   0.10181
H          H       0.44916   0.42399   0.18796
H          H       0.57601   0.02517   0.18796
H          H       0.97483   0.55084   0.18796
H          H       0.55084   0.57601   0.18796
H          H       0.42399   0.97483   0.18796
H          H       0.02517   0.44916   0.18796
H          H       0.69922   0.41068   0.37359
H          H       0.58932   0.28854   0.37359
H          H       0.71146   0.30078   0.37359
H          H       0.30078   0.58932   0.37359
H          H       0.41068   0.71146   0.37359
H          H       0.28854   0.69922   0.37359
H          H       0.61583   0.58914   0.10893
H          H       0.41086   0.02669   0.10893
H          H       0.97331   0.38417   0.10893
H          H       0.38417   0.41086   0.10893
H          H       0.58914   0.97331   0.10893
H          H       0.02669   0.61583   0.10893
H          H       0.64880   0.57397   0.20125
H          H       0.42603   0.07483   0.20125
H          H       0.92517   0.35120   0.20125
H          H       0.35120   0.42603   0.20125
H          H       0.57397   0.92517   0.20125
H          H       0.07483   0.64880   0.20125
H          H       0.61217   0.58214   0.30248
H          H       0.41786   0.03003   0.30248
H          H       0.96997   0.38783   0.30248
H          H       0.38783   0.41786   0.30248
H          H       0.58214   0.96997   0.30248
H          H       0.03003   0.61217   0.30248
H          H       0.48052   0.30083   0.48681
H          H       0.69917   0.17969   0.48681
H          H       0.82031   0.51948   0.48681
H          H       0.51948   0.69917   0.48681
H          H       0.30083   0.82031   0.48681
H          H       0.17969   0.48052   0.48681
H          H       0.43640   0.24197   0.32482
H          H       0.75803   0.19443   0.32482
H          H       0.80557   0.56360   0.32482
H          H       0.56360   0.75803   0.32482
H          H       0.24197   0.80557   0.32482
H          H       0.19443   0.43640   0.32482
H          H       0.38027   0.24335   0.18302
H          H       0.75665   0.13692   0.18302
H          H       0.86308   0.61973   0.18302
H          H       0.61973   0.75665   0.18302
H          H       0.24335   0.86308   0.18302
H          H       0.13692   0.38027   0.18302
H          H       0.36776   0.30329   0.20516
H          H       0.69671   0.06447   0.20516
H          H       0.93553   0.63224   0.20516
H          H       0.63224   0.69671   0.20516
H          H       0.30329   0.93553   0.20516
H          H       0.06447   0.36776   0.20516
H          H       0.41161   0.36219   0.36735
H          H       0.63781   0.04942   0.36735
H          H       0.95058   0.58839   0.36735
H          H       0.58839   0.63781   0.36735
H          H       0.36219   0.95058   0.36735
H          H       0.04942   0.41161   0.36735
C          C       0.60231   0.42978   0.90816
C          C       0.57022   0.17253   0.90816
C          C       0.82747   0.39769   0.90816
C          C       0.39769   0.57022   0.90816
C          C       0.42978   0.82747   0.90816
C          C       0.17253   0.60231   0.90816
C          C       0.56589   0.41091   0.82480
C          C       0.58909   0.15498   0.82480
C          C       0.84502   0.43411   0.82480
C          C       0.43411   0.58909   0.82480
C          C       0.41091   0.84502   0.82480
C          C       0.15498   0.56589   0.82480
C          C       0.55327   0.37162   0.76390
C          C       0.62838   0.18165   0.76390
C          C       0.81835   0.44673   0.76390
C          C       0.44673   0.62838   0.76390
C          C       0.37162   0.81835   0.76390
C          C       0.18165   0.55327   0.76390
C          C       0.57761   0.35254   0.77998
C          C       0.64746   0.22507   0.77998
C          C       0.77493   0.42239   0.77998
C          C       0.42239   0.64746   0.77998
C          C       0.35254   0.77493   0.77998
C          C       0.22507   0.57761   0.77998
C          C       0.61436   0.37152   0.86261
C          C       0.62848   0.24284   0.86261
C          C       0.75716   0.38564   0.86261
C          C       0.38564   0.62848   0.86261
C          C       0.37152   0.75716   0.86261
C          C       0.24284   0.61436   0.86261
C          C       0.62600   0.41009   0.92874
C          C       0.58991   0.21591   0.92874
C          C       0.78409   0.37400   0.92874
C          C       0.37400   0.58991   0.92874
C          C       0.41009   0.78409   0.92874
C          C       0.21591   0.62600   0.92874
N          N       0.54191   0.43174   0.80620
N          N       0.56826   0.11017   0.80620
N          N       0.88983   0.45809   0.80620
N          N       0.45809   0.56826   0.80620
N          N       0.43174   0.88983   0.80620
N          N       0.11017   0.54191   0.80620
C          C       0.53025   0.43993   0.66629
C          C       0.56007   0.09032   0.66629
C          C       0.90968   0.46975   0.66629
C          C       0.46975   0.56007   0.66629
C          C       0.43993   0.90968   0.66629
C          C       0.09032   0.53025   0.66629
C          C       0.51436   0.47094   0.67667
C          C       0.52906   0.04342   0.67667
C          C       0.95658   0.48564   0.67667
C          C       0.48564   0.52906   0.67667
C          C       0.47094   0.95658   0.67667
C          C       0.04342   0.51436   0.67667
C          C       0.47114   0.45714   0.68367
C          C       0.54286   0.01400   0.68367
C          C       0.98600   0.52886   0.68367
C          C       0.52886   0.54286   0.68367
C          C       0.45714   0.98600   0.68367
C          C       0.01400   0.47114   0.68367
C          C       0.54359   0.51422   0.68140
C          C       0.48578   0.02937   0.68140
C          C       0.97063   0.45641   0.68140
C          C       0.45641   0.48578   0.68140
C          C       0.51422   0.97063   0.68140
C          C       0.02937   0.54359   0.68140
C          C       0.64112   0.35190   0.87474
C          C       0.64810   0.28922   0.87474
C          C       0.71078   0.35888   0.87474
C          C       0.35888   0.64810   0.87474
C          C       0.35190   0.71078   0.87474
C          C       0.28922   0.64112   0.87474
C          C       0.68502   0.37694   0.87585
C          C       0.62306   0.30808   0.87585
C          C       0.69192   0.31498   0.87585
C          C       0.31498   0.62306   0.87585
C          C       0.37694   0.69192   0.87585
C          C       0.30808   0.68502   0.87585
O          O       0.58676   0.52693   0.68154
O          O       0.47307   0.05983   0.68154
O          O       0.94017   0.41324   0.68154
O          O       0.41324   0.47307   0.68154
O          O       0.52693   0.94017   0.68154
O          O       0.05983   0.58676   0.68154
C          C       0.61700   0.57033   0.69944
C          C       0.42967   0.04667   0.69944
C          C       0.95333   0.38300   0.69944
C          C       0.38300   0.42967   0.69944
C          C       0.57033   0.95333   0.69944
C          C       0.04667   0.61700   0.69944
C          C       0.49985   0.40114   0.59313
C          C       0.59886   0.09871   0.59313
C          C       0.90129   0.50015   0.59313
C          C       0.50015   0.59886   0.59313
C          C       0.40114   0.90129   0.59313
C          C       0.09871   0.49985   0.59313
C          C       0.47587   0.37058   0.52593
C          C       0.62942   0.10529   0.52593
C          C       0.89471   0.52413   0.52593
C          C       0.52413   0.62942   0.52593
C          C       0.37058   0.89471   0.52593
C          C       0.10529   0.47587   0.52593
C          C       0.44867   0.33520   0.93908
C          C       0.66480   0.11347   0.93908
C          C       0.88653   0.55133   0.93908
C          C       0.55133   0.66480   0.93908
C          C       0.33520   0.88653   0.93908
C          C       0.11347   0.44867   0.93908
C          C       0.45562   0.30125   0.92684
C          C       0.69875   0.15437   0.92684
C          C       0.84563   0.54438   0.92684
C          C       0.54438   0.69875   0.92684
C          C       0.30125   0.84563   0.92684
C          C       0.15437   0.45562   0.92684
C          C       0.43082   0.26806   0.83509
C          C       0.73194   0.16276   0.83509
C          C       0.83724   0.56918   0.83509
C          C       0.56918   0.73194   0.83509
C          C       0.26806   0.83724   0.83509
C          C       0.16276   0.43082   0.83509
C          C       0.39911   0.26878   0.75546
C          C       0.73122   0.13033   0.75546
C          C       0.86967   0.60089   0.75546
C          C       0.60089   0.73122   0.75546
C          C       0.26878   0.86967   0.75546
C          C       0.13033   0.39911   0.75546
C          C       0.39203   0.30258   0.76797
C          C       0.69742   0.08945   0.76797
C          C       0.91055   0.60797   0.76797
C          C       0.60797   0.69742   0.76797
C          C       0.30258   0.91055   0.76797
C          C       0.08945   0.39203   0.76797
C          C       0.41678   0.33579   0.85971
C          C       0.66421   0.08099   0.85971
C          C       0.91901   0.58322   0.85971
C          C       0.58322   0.66421   0.85971
C          C       0.33579   0.91901   0.85971
C          C       0.08099   0.41678   0.85971
H          H       0.61271   0.46016   0.95573
H          H       0.53984   0.15255   0.95573
H          H       0.84745   0.38729   0.95573
H          H       0.38729   0.53984   0.95573
H          H       0.46016   0.84745   0.95573
H          H       0.15255   0.61271   0.95573
H          H       0.52447   0.35520   0.70508
H          H       0.64480   0.16927   0.70508
H          H       0.83073   0.47553   0.70508
H          H       0.47553   0.64480   0.70508
H          H       0.35520   0.83073   0.70508
H          H       0.16927   0.52447   0.70508
H          H       0.56793   0.32326   0.72519
H          H       0.67674   0.24467   0.72519
H          H       0.75533   0.43207   0.72519
H          H       0.43207   0.67674   0.72519
H          H       0.32326   0.75533   0.72519
H          H       0.24467   0.56793   0.72519
H          H       0.65346   0.42513   0.99620
H          H       0.57487   0.22833   0.99620
H          H       0.77167   0.34654   0.99620
H          H       0.34654   0.57487   0.99620
H          H       0.42513   0.77167   0.99620
H          H       0.22833   0.65346   0.99620
H          H       0.54773   0.45517   0.87985
H          H       0.54483   0.09256   0.87985
H          H       0.90744   0.45227   0.87985
H          H       0.45227   0.54483   0.87985
H          H       0.45517   0.90744   0.87985
H          H       0.09256   0.54773   0.87985
H          H       0.55922   0.45470   0.60181
H          H       0.54530   0.10452   0.60181
H          H       0.89548   0.44078   0.60181
H          H       0.44078   0.54530   0.60181
H          H       0.45470   0.89548   0.60181
H          H       0.10452   0.55922   0.60181
H          H       0.44916   0.42399   0.68796
H          H       0.57601   0.02517   0.68796
H          H       0.97483   0.55084   0.68796
H          H       0.55084   0.57601   0.68796
H          H       0.42399   0.97483   0.68796
H          H       0.02517   0.44916   0.68796
H          H       0.69922   0.41068   0.87360
H          H       0.58932   0.28854   0.87360
H          H       0.71146   0.30078   0.87360
H          H       0.30078   0.58932   0.87360
H          H       0.41068   0.71146   0.87360
H          H       0.28854   0.69922   0.87360
H          H       0.61583   0.58914   0.60894
H          H       0.41086   0.02669   0.60894
H          H       0.97331   0.38417   0.60894
H          H       0.38417   0.41086   0.60894
H          H       0.58914   0.97331   0.60894
H          H       0.02669   0.61583   0.60894
H          H       0.64880   0.57397   0.70125
H          H       0.42603   0.07483   0.70125
H          H       0.92517   0.35120   0.70125
H          H       0.35120   0.42603   0.70125
H          H       0.57397   0.92517   0.70125
H          H       0.07483   0.64880   0.70125
H          H       0.61217   0.58214   0.80248
H          H       0.41786   0.03003   0.80248
H          H       0.96997   0.38783   0.80248
H          H       0.38783   0.41786   0.80248
H          H       0.58214   0.96997   0.80248
H          H       0.03003   0.61217   0.80248
H          H       0.48052   0.30083   0.98681
H          H       0.69917   0.17969   0.98681
H          H       0.82031   0.51948   0.98681
H          H       0.51948   0.69917   0.98681
H          H       0.30083   0.82031   0.98681
H          H       0.17969   0.48052   0.98681
H          H       0.43640   0.24197   0.82482
H          H       0.75803   0.19443   0.82482
H          H       0.80557   0.56360   0.82482
H          H       0.56360   0.75803   0.82482
H          H       0.24197   0.80557   0.82482
H          H       0.19443   0.43640   0.82482
H          H       0.38027   0.24335   0.68302
H          H       0.75665   0.13692   0.68302
H          H       0.86308   0.61973   0.68302
H          H       0.61973   0.75665   0.68302
H          H       0.24335   0.86308   0.68302
H          H       0.13692   0.38027   0.68302
H          H       0.36776   0.30329   0.70516
H          H       0.69671   0.06447   0.70516
H          H       0.93553   0.63224   0.70516
H          H       0.63224   0.69671   0.70516
H          H       0.30329   0.93553   0.70516
H          H       0.06447   0.36776   0.70516
H          H       0.41161   0.36219   0.86735
H          H       0.63781   0.04942   0.86735
H          H       0.95058   0.58839   0.86735
H          H       0.58839   0.63781   0.86735
H          H       0.36219   0.95058   0.86735
H          H       0.04942   0.41161   0.86735
