data_Salen-COF
_audit_creation_date              0000-00-00
_audit_creation_method            'LanYouShi'
_symmetry_space_group_name_H-M    'P1'
_cell_length_a                    37.5250015
_cell_length_b                    37.5250015
_cell_length_c                    5.4229999
_cell_angle_alpha                 90.0000000
_cell_angle_beta                  90.0000000
_cell_angle_gamma                 120.0000000
loop_
_atom_site_label
_atom_site_type_symbol
_atom_site_fract_x
_atom_site_fract_y
_atom_site_fract_z
_atom_site_U_iso_or_equiv
_atom_site_adp_type
_atom_site_occupancy
        C1          C  0.7094499  0.3593800  0.3534200    0.00000       Uiso       1.00
        C2          C  0.6833900  0.3760900  0.3541100    0.00000       Uiso       1.00
        C3          C  0.7530800  0.3859500  0.3230000    0.00000       Uiso       1.00
        C4          C  0.7893400  0.4080600  0.2855000    0.00000       Uiso       1.00
        C5          C  0.8321900  0.4342800  0.2271600    0.00000       Uiso       1.00
        C6          C  0.8453600  0.4726700  0.1199900    0.00000       Uiso       1.00
        C7          C  0.8865400  0.4979800  0.0415200    0.00000       Uiso       1.00
        C8          C  0.9137100  0.4818800  0.0628000    0.00000       Uiso       1.00
        C9          C  0.9007699  0.4440600  0.1877600    0.00000       Uiso       1.00
       C10          C  0.8598900  0.4204200  0.2647500    0.00000       Uiso       1.00
       C11          C  0.9000300  0.5399700 -0.0848400    0.00000       Uiso       1.00
       C12          C  0.8709199  0.5570300 -0.0233500    0.00000       Uiso       1.00
       C13          C  0.8991600  0.5340400 -0.3653700    0.00000       Uiso       1.00
       C14          C  0.9440300  0.5733300 -0.0056400    0.00000       Uiso       1.00
       C15          C  0.9284999  0.4275900  0.2381700    0.00000       Uiso       1.00
        N1          N  0.9663500  0.4514900  0.3072200    0.00000       Uiso       1.00
       C16          C  0.9942799  0.4359900  0.3634100    0.00000       Uiso       1.00
        O1          O  0.9519700  0.5023200 -0.0547900    0.00000       Uiso       1.00
        H1          H  0.6963400  0.4091700  0.3446500    0.00000       Uiso       1.00
        H2          H  0.8225300  0.4818100  0.0946400    0.00000       Uiso       1.00
        H3          H  0.8494500  0.3908300  0.3523600    0.00000       Uiso       1.00
        H4          H  0.8670300  0.5579600  0.1790600    0.00000       Uiso       1.00
        H5          H  0.8402399  0.5383900 -0.1106300    0.00000       Uiso       1.00
        H6          H  0.8832600  0.5887400 -0.0962800    0.00000       Uiso       1.00
        H7          H  0.8675900  0.5111099 -0.4258500    0.00000       Uiso       1.00
        H8          H  0.9203399  0.5229500 -0.4227300    0.00000       Uiso       1.00
        H9          H  0.9084499  0.5635999 -0.4607500    0.00000       Uiso       1.00
       H10          H  0.9680099  0.5712200 -0.1132000    0.00000       Uiso       1.00
       H11          H  0.9492500  0.5708100  0.1932100    0.00000       Uiso       1.00
       H12          H  0.9497200  0.6049300 -0.0403500    0.00000       Uiso       1.00
       H13          H  0.9157900  0.3945200  0.2334400    0.00000       Uiso       1.00
       H14          H  0.0224700  0.4525900  0.2489200    0.00000       Uiso       1.00
       H15          H  0.9798800  0.4027000  0.3175200    0.00000       Uiso       1.00
       H16          H  0.9649100  0.4848200 -0.0886100    0.00000       Uiso       1.00
       C17          C  0.6406200  0.3500700  0.3534200    0.00000       Uiso       1.00
       C18          C  0.6239100  0.3073000  0.3541100    0.00000       Uiso       1.00
       C19          C  0.6140500  0.3671300  0.3230000    0.00000       Uiso       1.00
       C20          C  0.5919400  0.3812800  0.2855000    0.00000       Uiso       1.00
       C21          C  0.5657200  0.3979100  0.2271600    0.00000       Uiso       1.00
       C22          C  0.5273300  0.3726900  0.1199900    0.00000       Uiso       1.00
       C23          C  0.5020199  0.3885600  0.0415200    0.00000       Uiso       1.00
       C24          C  0.5181200  0.4318300  0.0628000    0.00000       Uiso       1.00
       C25          C  0.5559400  0.4567100  0.1877600    0.00000       Uiso       1.00
       C26          C  0.5795799  0.4394700  0.2647500    0.00000       Uiso       1.00
       C27          C  0.4600300  0.3600600 -0.0848400    0.00000       Uiso       1.00
       C28          C  0.4429700  0.3138900 -0.0233500    0.00000       Uiso       1.00
       C29          C  0.4659600  0.3651200 -0.3653700    0.00000       Uiso       1.00
       C30          C  0.4266700  0.3707000 -0.0056400    0.00000       Uiso       1.00
       C31          C  0.5724100  0.5009100  0.2381700    0.00000       Uiso       1.00
        N2          N  0.5485100  0.5148600  0.3072200    0.00000       Uiso       1.00
       C32          C  0.5640100  0.5582900  0.3634100    0.00000       Uiso       1.00
        O2          O  0.4976800  0.4496500 -0.0547900    0.00000       Uiso       1.00
       H17          H  0.5908300  0.2871700  0.3446500    0.00000       Uiso       1.00
       H18          H  0.5181900  0.3407200  0.0946400    0.00000       Uiso       1.00
       H19          H  0.6091700  0.4586200  0.3523600    0.00000       Uiso       1.00
       H20          H  0.4420400  0.3090700  0.1790600    0.00000       Uiso       1.00
       H21          H  0.4616100  0.3018500 -0.1106300    0.00000       Uiso       1.00
       H22          H  0.4112600  0.2945200 -0.0962800    0.00000       Uiso       1.00
       H23          H  0.4888900  0.3564800 -0.4258500    0.00000       Uiso       1.00
       H24          H  0.4770500  0.3973900 -0.4227300    0.00000       Uiso       1.00
       H25          H  0.4364000  0.3448500 -0.4607500    0.00000       Uiso       1.00
       H26          H  0.4287800  0.3967900 -0.1132000    0.00000       Uiso       1.00
       H27          H  0.4291900  0.3784400  0.1932100    0.00000       Uiso       1.00
       H28          H  0.3950700  0.3447900 -0.0403500    0.00000       Uiso       1.00
       H29          H  0.6054800  0.5212700  0.2334400    0.00000       Uiso       1.00
       H30          H  0.5474100  0.5698799  0.2489200    0.00000       Uiso       1.00
       H31          H  0.5973000  0.5771800  0.3175200    0.00000       Uiso       1.00
       H32          H  0.5151800  0.4800900 -0.0886100    0.00000       Uiso       1.00
       C33          C  0.6499300  0.2905500  0.3534200    0.00000       Uiso       1.00
       C34          C  0.6927000  0.3166100  0.3541100    0.00000       Uiso       1.00
       C35          C  0.6328700  0.2469200  0.3230000    0.00000       Uiso       1.00
       C36          C  0.6187199  0.2106600  0.2855000    0.00000       Uiso       1.00
       C37          C  0.6020900  0.1678100  0.2271600    0.00000       Uiso       1.00
       C38          C  0.6273100  0.1546400  0.1199900    0.00000       Uiso       1.00
       C39          C  0.6114399  0.1134600  0.0415200    0.00000       Uiso       1.00
       C40          C  0.5681700  0.0862900  0.0628000    0.00000       Uiso       1.00
       C41          C  0.5432900  0.0992300  0.1877600    0.00000       Uiso       1.00
       C42          C  0.5605300  0.1401100  0.2647500    0.00000       Uiso       1.00
       C43          C  0.6399400  0.0999700 -0.0848400    0.00000       Uiso       1.00
       C44          C  0.6861100  0.1290800 -0.0233500    0.00000       Uiso       1.00
       C45          C  0.6348800  0.1008400 -0.3653700    0.00000       Uiso       1.00
       C46          C  0.6293000  0.0559700 -0.0056400    0.00000       Uiso       1.00
       C47          C  0.4990900  0.0715000  0.2381700    0.00000       Uiso       1.00
        N3          N  0.4851400  0.0336500  0.3072200    0.00000       Uiso       1.00
       C48          C  0.4417100  0.0057200  0.3634100    0.00000       Uiso       1.00
        O3          O  0.5503500  0.0480300 -0.0547900    0.00000       Uiso       1.00
       H33          H  0.7128299  0.3036600  0.3446500    0.00000       Uiso       1.00
       H34          H  0.6592799  0.1774700  0.0946400    0.00000       Uiso       1.00
       H35          H  0.5413800  0.1505500  0.3523600    0.00000       Uiso       1.00
       H36          H  0.6909299  0.1329700  0.1790600    0.00000       Uiso       1.00
       H37          H  0.6981500  0.1597600 -0.1106300    0.00000       Uiso       1.00
       H38          H  0.7054800  0.1167400 -0.0962800    0.00000       Uiso       1.00
       H39          H  0.6435200  0.1324100 -0.4258500    0.00000       Uiso       1.00
       H40          H  0.6026099  0.0796600 -0.4227300    0.00000       Uiso       1.00
       H41          H  0.6551499  0.0915500 -0.4607500    0.00000       Uiso       1.00
       H42          H  0.6032100  0.0319900 -0.1132000    0.00000       Uiso       1.00
       H43          H  0.6215600  0.0507500  0.1932100    0.00000       Uiso       1.00
       H44          H  0.6552100  0.0502800 -0.0403500    0.00000       Uiso       1.00
       H45          H  0.4787300  0.0842100  0.2334400    0.00000       Uiso       1.00
       H46          H  0.4301200  0.9775299  0.2489200    0.00000       Uiso       1.00
       H47          H  0.4228200  0.0201200  0.3175200    0.00000       Uiso       1.00
       H48          H  0.5199100  0.0350900 -0.0886100    0.00000       Uiso       1.00
       C49          C  0.3593800  0.7094499  0.6465800    0.00000       Uiso       1.00
       C50          C  0.3760900  0.6833900  0.6458900    0.00000       Uiso       1.00
       C51          C  0.3859500  0.7530800  0.6770000    0.00000       Uiso       1.00
       C52          C  0.4080600  0.7893400  0.7145000    0.00000       Uiso       1.00
       C53          C  0.4342800  0.8321900  0.7728400    0.00000       Uiso       1.00
       C54          C  0.4726700  0.8453600  0.8800100    0.00000       Uiso       1.00
       C55          C  0.4979800  0.8865399  0.9584800    0.00000       Uiso       1.00
       C56          C  0.4818800  0.9137099  0.9372000    0.00000       Uiso       1.00
       C57          C  0.4440600  0.9007699  0.8122400    0.00000       Uiso       1.00
       C58          C  0.4204200  0.8598900  0.7352501    0.00000       Uiso       1.00
       C59          C  0.5399700  0.9000300  1.0848399    0.00000       Uiso       1.00
       C60          C  0.5570300  0.8709199  1.0233500    0.00000       Uiso       1.00
       C61          C  0.5340400  0.8991600  1.3653700    0.00000       Uiso       1.00
       C62          C  0.5733300  0.9440300  1.0056400    0.00000       Uiso       1.00
       C63          C  0.4275900  0.9284999  0.7618300    0.00000       Uiso       1.00
        N4          N  0.4514900  0.9663500  0.6927800    0.00000       Uiso       1.00
       C64          C  0.4359900  0.9942800  0.6365900    0.00000       Uiso       1.00
        O4          O  0.5023200  0.9519699  1.0547900    0.00000       Uiso       1.00
       H49          H  0.4091700  0.6963400  0.6553500    0.00000       Uiso       1.00
       H50          H  0.4818100  0.8225300  0.9053600    0.00000       Uiso       1.00
       H51          H  0.3908300  0.8494500  0.6476400    0.00000       Uiso       1.00
       H52          H  0.5579600  0.8670300  0.8209400    0.00000       Uiso       1.00
       H53          H  0.5383900  0.8402399  1.1106300    0.00000       Uiso       1.00
       H54          H  0.5887400  0.8832600  1.0962801    0.00000       Uiso       1.00
       H55          H  0.5111099  0.8675900  1.4258500    0.00000       Uiso       1.00
       H56          H  0.5229500  0.9203399  1.4227300    0.00000       Uiso       1.00
       H57          H  0.5635999  0.9084499  1.4607500    0.00000       Uiso       1.00
       H58          H  0.5712200  0.9680099  1.1132001    0.00000       Uiso       1.00
       H59          H  0.5708100  0.9492500  0.8067901    0.00000       Uiso       1.00
       H60          H  0.6049300  0.9497200  1.0403501    0.00000       Uiso       1.00
       H61          H  0.3945200  0.9157900  0.7665600    0.00000       Uiso       1.00
       H62          H  0.4525900  0.0224700  0.7510800    0.00000       Uiso       1.00
       H63          H  0.4027000  0.9798800  0.6824800    0.00000       Uiso       1.00
       H64          H  0.4848200  0.9649099  1.0886101    0.00000       Uiso       1.00
       C65          C  0.3500700  0.6406200  0.6465800    0.00000       Uiso       1.00
       C66          C  0.3073000  0.6239100  0.6458900    0.00000       Uiso       1.00
       C67          C  0.3671300  0.6140500  0.6770000    0.00000       Uiso       1.00
       C68          C  0.3812800  0.5919400  0.7145000    0.00000       Uiso       1.00
       C69          C  0.3979100  0.5657200  0.7728400    0.00000       Uiso       1.00
       C70          C  0.3726900  0.5273300  0.8800100    0.00000       Uiso       1.00
       C71          C  0.3885600  0.5020200  0.9584800    0.00000       Uiso       1.00
       C72          C  0.4318300  0.5181200  0.9372000    0.00000       Uiso       1.00
       C73          C  0.4567100  0.5559400  0.8122400    0.00000       Uiso       1.00
       C74          C  0.4394700  0.5795799  0.7352501    0.00000       Uiso       1.00
       C75          C  0.3600600  0.4600300  1.0848399    0.00000       Uiso       1.00
       C76          C  0.3138900  0.4429700  1.0233500    0.00000       Uiso       1.00
       C77          C  0.3651200  0.4659600  1.3653700    0.00000       Uiso       1.00
       C78          C  0.3707000  0.4266700  1.0056400    0.00000       Uiso       1.00
       C79          C  0.5009100  0.5724100  0.7618300    0.00000       Uiso       1.00
        N5          N  0.5148600  0.5485100  0.6927800    0.00000       Uiso       1.00
       C80          C  0.5582900  0.5640100  0.6365900    0.00000       Uiso       1.00
        O5          O  0.4496500  0.4976799  1.0547900    0.00000       Uiso       1.00
       H65          H  0.2871700  0.5908300  0.6553500    0.00000       Uiso       1.00
       H66          H  0.3407200  0.5181900  0.9053600    0.00000       Uiso       1.00
       H67          H  0.4586200  0.6091700  0.6476400    0.00000       Uiso       1.00
       H68          H  0.3090700  0.4420400  0.8209400    0.00000       Uiso       1.00
       H69          H  0.3018500  0.4616100  1.1106300    0.00000       Uiso       1.00
       H70          H  0.2945200  0.4112600  1.0962801    0.00000       Uiso       1.00
       H71          H  0.3564800  0.4888900  1.4258500    0.00000       Uiso       1.00
       H72          H  0.3973900  0.4770500  1.4227300    0.00000       Uiso       1.00
       H73          H  0.3448500  0.4364000  1.4607500    0.00000       Uiso       1.00
       H74          H  0.3967900  0.4287800  1.1132001    0.00000       Uiso       1.00
       H75          H  0.3784400  0.4291900  0.8067901    0.00000       Uiso       1.00
       H76          H  0.3447900  0.3950700  1.0403501    0.00000       Uiso       1.00
       H77          H  0.5212700  0.6054800  0.7665600    0.00000       Uiso       1.00
       H78          H  0.5698799  0.5474100  0.7510800    0.00000       Uiso       1.00
       H79          H  0.5771800  0.5973000  0.6824800    0.00000       Uiso       1.00
       H80          H  0.4800900  0.5151800  1.0886101    0.00000       Uiso       1.00
       C81          C  0.2905500  0.6499300  0.6465800    0.00000       Uiso       1.00
       C82          C  0.3166100  0.6927000  0.6458900    0.00000       Uiso       1.00
       C83          C  0.2469200  0.6328700  0.6770000    0.00000       Uiso       1.00
       C84          C  0.2106600  0.6187199  0.7145000    0.00000       Uiso       1.00
       C85          C  0.1678100  0.6020900  0.7728400    0.00000       Uiso       1.00
       C86          C  0.1546400  0.6273100  0.8800100    0.00000       Uiso       1.00
       C87          C  0.1134600  0.6114400  0.9584800    0.00000       Uiso       1.00
       C88          C  0.0862900  0.5681700  0.9372000    0.00000       Uiso       1.00
       C89          C  0.0992300  0.5432900  0.8122400    0.00000       Uiso       1.00
       C90          C  0.1401100  0.5605299  0.7352501    0.00000       Uiso       1.00
       C91          C  0.0999700  0.6399400  1.0848399    0.00000       Uiso       1.00
       C92          C  0.1290800  0.6861100  1.0233500    0.00000       Uiso       1.00
       C93          C  0.1008400  0.6348799  1.3653700    0.00000       Uiso       1.00
       C94          C  0.0559700  0.6292999  1.0056400    0.00000       Uiso       1.00
       C95          C  0.0715000  0.4990900  0.7618300    0.00000       Uiso       1.00
        N6          N  0.0336500  0.4851400  0.6927800    0.00000       Uiso       1.00
       C96          C  0.0057200  0.4417100  0.6365900    0.00000       Uiso       1.00
        O6          O  0.0480300  0.5503500  1.0547900    0.00000       Uiso       1.00
       H81          H  0.3036600  0.7128299  0.6553500    0.00000       Uiso       1.00
       H82          H  0.1774700  0.6592800  0.9053600    0.00000       Uiso       1.00
       H83          H  0.1505500  0.5413799  0.6476400    0.00000       Uiso       1.00
       H84          H  0.1329700  0.6909300  0.8209400    0.00000       Uiso       1.00
       H85          H  0.1597600  0.6981500  1.1106300    0.00000       Uiso       1.00
       H86          H  0.1167400  0.7054800  1.0962801    0.00000       Uiso       1.00
       H87          H  0.1324100  0.6435199  1.4258500    0.00000       Uiso       1.00
       H88          H  0.0796600  0.6026100  1.4227300    0.00000       Uiso       1.00
       H89          H  0.0915500  0.6551499  1.4607500    0.00000       Uiso       1.00
       H90          H  0.0319900  0.6032100  1.1132001    0.00000       Uiso       1.00
       H91          H  0.0507500  0.6215600  0.8067901    0.00000       Uiso       1.00
       H92          H  0.0502800  0.6552100  1.0403501    0.00000       Uiso       1.00
       H93          H  0.0842100  0.4787300  0.7665600    0.00000       Uiso       1.00
       H94          H  0.9775299  0.4301200  0.7510800    0.00000       Uiso       1.00
       H95          H  0.0201200  0.4228200  0.6824800    0.00000       Uiso       1.00
       H96          H  0.0350900  0.5199100  1.0886101    0.00000       Uiso       1.00
