data_crystal

_cell_length_a    19.36980
_cell_length_b    19.36980
_cell_length_c    24.49640
_cell_angle_alpha 90.00000
_cell_angle_beta  90.00000
_cell_angle_gamma 120.00000

_space_group_name_Hall 'P 1'
_space_group_name_H-M_alt  'P 1'

loop_
_symmetry_equiv_pos_as_xyz
'x,y,z'

loop_
_atom_site_label
_atom_site_type_symbol
_atom_site_fract_x
_atom_site_fract_y
_atom_site_fract_z
C          C       0.73190   0.90183   0.62235
C          C       0.09817   0.83007   0.62235
C          C       0.16993   0.26810   0.62235
C          C       0.26810   0.09817   0.37765
C          C       0.90183   0.16993   0.37765
C          C       0.83007   0.73190   0.37765
C          C       0.81242   0.96438   0.62317
C          C       0.03562   0.84804   0.62317
C          C       0.15196   0.18758   0.62317
C          C       0.18758   0.03562   0.37683
C          C       0.96438   0.15196   0.37683
C          C       0.84804   0.81242   0.37683
C          C       0.92724   0.99667   0.57312
C          C       0.00333   0.93057   0.57312
C          C       0.06943   0.07276   0.57312
C          C       0.07276   0.00333   0.42688
C          C       0.99667   0.06943   0.42688
C          C       0.93057   0.92724   0.42688
C          C       0.99635   0.07076   0.57291
C          C       0.92924   0.92559   0.57291
C          C       0.07441   0.00365   0.57291
C          C       0.00365   0.92924   0.42709
C          C       0.07076   0.07441   0.42709
C          C       0.92559   0.99635   0.42709
C          C       0.61058   0.77787   0.12267
C          C       0.22213   0.83271   0.12267
C          C       0.16729   0.38942   0.12267
C          C       0.38942   0.22213   0.87733
C          C       0.77787   0.16729   0.87733
C          C       0.83271   0.61058   0.87733
C          C       0.52840   0.71953   0.12386
C          C       0.28047   0.80887   0.12386
C          C       0.19113   0.47160   0.12386
C          C       0.47160   0.28047   0.87614
C          C       0.71953   0.19113   0.87614
C          C       0.80887   0.52840   0.87614
C          C       0.41005   0.67911   0.07442
C          C       0.32089   0.73094   0.07442
C          C       0.26906   0.58995   0.07442
C          C       0.58995   0.32089   0.92558
C          C       0.67911   0.26906   0.92558
C          C       0.73094   0.41005   0.92558
C          C       0.34624   0.60130   0.07428
C          C       0.39870   0.74494   0.07428
C          C       0.25506   0.65376   0.07428
C          C       0.65376   0.39870   0.92572
C          C       0.60130   0.25506   0.92572
C          C       0.74494   0.34624   0.92572
C          C       0.64079   0.75389   0.41628
C          C       0.24611   0.88690   0.41628
C          C       0.11310   0.35921   0.41628
C          C       0.35921   0.24611   0.58372
C          C       0.75389   0.11310   0.58372
C          C       0.88690   0.64079   0.58372
C          C       0.65491   0.78559   0.46884
C          C       0.21441   0.86932   0.46884
C          C       0.13068   0.34509   0.46884
C          C       0.34509   0.21441   0.53116
C          C       0.78559   0.13068   0.53116
C          C       0.86932   0.65491   0.53116
C          C       0.63657   0.76752   0.31658
C          C       0.23248   0.86905   0.31658
C          C       0.13095   0.36343   0.31658
C          C       0.36343   0.23248   0.68342
C          C       0.76752   0.13095   0.68342
C          C       0.86905   0.63657   0.68342
C          C       0.66024   0.80331   0.36993
C          C       0.19669   0.85693   0.36993
C          C       0.14307   0.33976   0.36993
C          C       0.33976   0.19669   0.63007
C          C       0.80331   0.14307   0.63007
C          C       0.85693   0.66024   0.63007
C          C       0.68878   0.86965   0.47547
C          C       0.13035   0.81913   0.47547
C          C       0.18087   0.31122   0.47547
C          C       0.31122   0.13035   0.52453
C          C       0.86965   0.18087   0.52453
C          C       0.81913   0.68878   0.52453
C          C       0.70874   0.91907   0.42920
C          C       0.08093   0.78967   0.42920
C          C       0.21033   0.29126   0.42920
C          C       0.29126   0.08093   0.57080
C          C       0.91907   0.21033   0.57080
C          C       0.78967   0.70874   0.57080
C          C       0.69652   0.88769   0.37660
C          C       0.11231   0.80883   0.37660
C          C       0.19117   0.30348   0.37660
C          C       0.30348   0.11231   0.62340
C          C       0.88769   0.19117   0.62340
C          C       0.80883   0.69652   0.62340
C          C       0.70829   0.90595   0.52892
C          C       0.09405   0.80234   0.52892
C          C       0.19766   0.29171   0.52892
C          C       0.29171   0.09405   0.47108
C          C       0.90595   0.19766   0.47108
C          C       0.80234   0.70829   0.47108
C          C       0.26749   0.09677   0.27688
C          C       0.90323   0.17072   0.27688
C          C       0.82928   0.73251   0.27688
C          C       0.73251   0.90323   0.72312
C          C       0.09677   0.82928   0.72312
C          C       0.17072   0.26749   0.72312
C          C       0.18706   0.03416   0.27837
C          C       0.96584   0.15290   0.27837
C          C       0.84710   0.81294   0.27837
C          C       0.81294   0.96584   0.72163
C          C       0.03416   0.84710   0.72163
C          C       0.15290   0.18706   0.72163
C          C       0.07221   0.00185   0.22810
C          C       0.99815   0.07036   0.22810
C          C       0.92964   0.92779   0.22810
C          C       0.92779   0.99815   0.77190
C          C       0.00185   0.92964   0.77190
C          C       0.07036   0.07221   0.77190
C          C       0.00223   0.92843   0.22789
C          C       0.07157   0.07380   0.22789
C          C       0.92620   0.99777   0.22789
C          C       0.99777   0.07157   0.77211
C          C       0.92843   0.92620   0.77211
C          C       0.07380   0.00223   0.77211
C          C       0.38891   0.22421   0.77639
C          C       0.77579   0.16470   0.77639
C          C       0.83530   0.61109   0.77639
C          C       0.61109   0.77579   0.22361
C          C       0.22421   0.83530   0.22361
C          C       0.16470   0.38891   0.22361
C          C       0.47148   0.28142   0.77746
C          C       0.71858   0.19006   0.77746
C          C       0.80994   0.52852   0.77746
C          C       0.52852   0.71858   0.22254
C          C       0.28142   0.80994   0.22254
C          C       0.19006   0.47148   0.22254
C          C       0.59004   0.32133   0.72800
C          C       0.67867   0.26871   0.72800
C          C       0.73129   0.40996   0.72800
C          C       0.40996   0.67867   0.27200
C          C       0.32133   0.73129   0.27200
C          C       0.26871   0.59004   0.27200
C          C       0.65415   0.39897   0.72776
C          C       0.60103   0.25518   0.72776
C          C       0.74482   0.34585   0.72776
C          C       0.34585   0.60103   0.27224
C          C       0.39897   0.74482   0.27224
C          C       0.25518   0.65415   0.27224
C          C       0.35802   0.24107   0.06987
C          C       0.75893   0.11695   0.06987
C          C       0.88305   0.64198   0.06987
C          C       0.64198   0.75893   0.93013
C          C       0.24107   0.88305   0.93013
C          C       0.11695   0.35802   0.93013
C          C       0.34401   0.21052   0.12271
C          C       0.78948   0.13349   0.12271
C          C       0.86651   0.65599   0.12271
C          C       0.65599   0.78948   0.87729
C          C       0.21052   0.86651   0.87729
C          C       0.13349   0.34401   0.87729
C          C       0.36408   0.22730   0.97065
C          C       0.77270   0.13678   0.97065
C          C       0.86322   0.63592   0.97065
C          C       0.63592   0.77270   0.02935
C          C       0.22730   0.86322   0.02935
C          C       0.13678   0.36408   0.02935
C          C       0.34274   0.19148   0.02415
C          C       0.80852   0.15126   0.02415
C          C       0.84874   0.65726   0.02415
C          C       0.65726   0.80852   0.97585
C          C       0.19148   0.84874   0.97585
C          C       0.15126   0.34274   0.97585
C          C       0.31293   0.12688   0.13007
C          C       0.87312   0.18605   0.13007
C          C       0.81395   0.68707   0.13007
C          C       0.68707   0.87312   0.86993
C          C       0.12688   0.81395   0.86993
C          C       0.18605   0.31293   0.86993
C          C       0.29740   0.07724   0.08429
C          C       0.92276   0.22016   0.08429
C          C       0.77984   0.70260   0.08429
C          C       0.70260   0.92276   0.91571
C          C       0.07724   0.77984   0.91571
C          C       0.22016   0.29740   0.91571
C          C       0.31163   0.10791   0.03150
C          C       0.89209   0.20372   0.03150
C          C       0.79628   0.68837   0.03150
C          C       0.68837   0.89209   0.96850
C          C       0.10791   0.79628   0.96850
C          C       0.20372   0.31163   0.96850
C          C       0.29208   0.09120   0.18363
C          C       0.90880   0.20088   0.18363
C          C       0.79912   0.70792   0.18363
C          C       0.70792   0.90880   0.81637
C          C       0.09120   0.79912   0.81637
C          C       0.20088   0.29208   0.81637
C          C       0.17743   0.30559   0.67289
C          C       0.69441   0.87184   0.67289
C          C       0.12816   0.82257   0.67289
C          C       0.82257   0.69441   0.32711
C          C       0.30559   0.12816   0.32711
C          C       0.87184   0.17743   0.32711
C          C       0.14286   0.14799   0.67224
C          C       0.85201   0.99487   0.67224
C          C       0.00513   0.85714   0.67224
C          C       0.85714   0.85201   0.32776
C          C       0.14799   0.00513   0.32776
C          C       0.99487   0.14286   0.32776
C          C       0.15567   0.35055   0.17316
C          C       0.64945   0.80512   0.17316
C          C       0.19488   0.84433   0.17316
C          C       0.84433   0.64945   0.82684
C          C       0.35055   0.19488   0.82684
C          C       0.80512   0.15567   0.82684
C          C       0.20347   0.51165   0.17318
C          C       0.48835   0.69182   0.17318
C          C       0.30818   0.79653   0.17318
C          C       0.79653   0.48835   0.82682
C          C       0.51165   0.30818   0.82682
C          C       0.69182   0.20347   0.82682
O          O       0.85359   0.99328   0.57436
O          O       0.00672   0.86031   0.57436
O          O       0.13969   0.14641   0.57436
O          O       0.14641   0.00672   0.42564
O          O       0.99328   0.13969   0.42564
O          O       0.86031   0.85359   0.42564
O          O       0.48747   0.69175   0.07494
O          O       0.30825   0.79572   0.07494
O          O       0.20428   0.51253   0.07494
O          O       0.51253   0.30825   0.92506
O          O       0.69175   0.20428   0.92506
O          O       0.79572   0.48747   0.92506
O          O       0.63653   0.73687   0.51268
O          O       0.26313   0.89966   0.51268
O          O       0.10034   0.36347   0.51268
O          O       0.36347   0.26313   0.48732
O          O       0.73687   0.10034   0.48732
O          O       0.89966   0.63653   0.48732
O          O       0.71795   0.93709   0.33304
O          O       0.06291   0.78086   0.33304
O          O       0.21914   0.28205   0.33304
O          O       0.28205   0.06291   0.66696
O          O       0.93709   0.21914   0.66696
O          O       0.78086   0.71795   0.66696
O          O       0.14510   0.00362   0.22988
O          O       0.99638   0.14148   0.22988
O          O       0.85852   0.85490   0.22988
O          O       0.85490   0.99638   0.77012
O          O       0.00362   0.85852   0.77012
O          O       0.14148   0.14510   0.77012
O          O       0.51264   0.30906   0.72845
O          O       0.69094   0.20358   0.72845
O          O       0.79642   0.48736   0.72845
O          O       0.48736   0.69094   0.27155
O          O       0.30906   0.79642   0.27155
O          O       0.20358   0.51264   0.27155
O          O       0.35897   0.25975   0.16575
O          O       0.74025   0.09922   0.16575
O          O       0.90078   0.64103   0.16575
O          O       0.64103   0.74025   0.83425
O          O       0.25975   0.90078   0.83425
O          O       0.09922   0.35897   0.83425
O          O       0.29666   0.05869   0.98841
O          O       0.94131   0.23797   0.98841
O          O       0.76203   0.70334   0.98841
O          O       0.70334   0.94131   0.01159
O          O       0.05869   0.76203   0.01159
O          O       0.23797   0.29666   0.01159
H          H       0.99318   0.12523   0.57398
H          H       0.87477   0.86795   0.57398
H          H       0.13205   0.00682   0.57398
H          H       0.00682   0.87477   0.42602
H          H       0.12523   0.13205   0.42602
H          H       0.86795   0.99318   0.42602
H          H       0.35623   0.55073   0.07516
H          H       0.44927   0.80550   0.07516
H          H       0.19450   0.64377   0.07516
H          H       0.64377   0.44927   0.92484
H          H       0.55073   0.19450   0.92484
H          H       0.80550   0.35623   0.92484
H          H       0.61313   0.68946   0.41119
H          H       0.31054   0.92367   0.41119
H          H       0.07633   0.38687   0.41119
H          H       0.38687   0.31054   0.58881
H          H       0.68946   0.07633   0.58881
H          H       0.92367   0.61313   0.58881
H          H       0.65209   0.77294   0.54614
H          H       0.22706   0.87915   0.54614
H          H       0.12085   0.34791   0.54614
H          H       0.34791   0.22706   0.45386
H          H       0.77294   0.12085   0.45386
H          H       0.87915   0.65209   0.45386
H          H       0.60350   0.70206   0.31494
H          H       0.29794   0.90144   0.31494
H          H       0.09856   0.39650   0.31494
H          H       0.39650   0.29794   0.68506
H          H       0.70206   0.09856   0.68506
H          H       0.90144   0.60350   0.68506
H          H       0.73356   0.98307   0.43466
H          H       0.01693   0.75049   0.43466
H          H       0.24951   0.26644   0.43466
H          H       0.26644   0.01693   0.56534
H          H       0.98307   0.24951   0.56534
H          H       0.75049   0.73356   0.56534
H          H       0.69856   0.90112   0.29960
H          H       0.09888   0.79744   0.29960
H          H       0.20256   0.30144   0.29960
H          H       0.30144   0.09888   0.70040
H          H       0.90112   0.20256   0.70040
H          H       0.79744   0.69856   0.70040
H          H       0.73640   0.97097   0.53033
H          H       0.02903   0.76543   0.53033
H          H       0.23457   0.26360   0.53033
H          H       0.26360   0.02903   0.46967
H          H       0.97097   0.23457   0.46967
H          H       0.76543   0.73640   0.46967
H          H       0.00403   0.87317   0.22949
H          H       0.12683   0.13086   0.22949
H          H       0.86914   0.99597   0.22949
H          H       0.99597   0.12683   0.77051
H          H       0.87317   0.86914   0.77051
H          H       0.13086   0.00403   0.77051
H          H       0.64453   0.44973   0.72844
H          H       0.55027   0.19480   0.72844
H          H       0.80520   0.35547   0.72844
H          H       0.35547   0.55027   0.27156
H          H       0.44973   0.80520   0.27156
H          H       0.19480   0.64453   0.27156
H          H       0.38116   0.30470   0.06393
H          H       0.69530   0.07646   0.06393
H          H       0.92354   0.61884   0.06393
H          H       0.61884   0.69530   0.93607
H          H       0.30470   0.92354   0.93607
H          H       0.07646   0.38116   0.93607
H          H       0.34333   0.22494   0.19958
H          H       0.77506   0.11839   0.19958
H          H       0.88161   0.65667   0.19958
H          H       0.65667   0.77506   0.80042
H          H       0.22494   0.88161   0.80042
H          H       0.11839   0.34333   0.80042
H          H       0.39295   0.29260   0.96912
H          H       0.70740   0.10035   0.96912
H          H       0.89965   0.60705   0.96912
H          H       0.60705   0.70740   0.03088
H          H       0.29260   0.89965   0.03088
H          H       0.10035   0.39295   0.03088
H          H       0.27250   0.01328   0.09012
H          H       0.98672   0.25922   0.09012
H          H       0.74078   0.72750   0.09012
H          H       0.72750   0.98672   0.90988
H          H       0.01328   0.74078   0.90988
H          H       0.25922   0.27250   0.90988
H          H       0.31151   0.09331   0.95457
H          H       0.90669   0.21820   0.95457
H          H       0.78180   0.68849   0.95457
H          H       0.68849   0.90669   0.04543
H          H       0.09331   0.78180   0.04543
H          H       0.21820   0.31151   0.04543
H          H       0.26448   0.02600   0.18555
H          H       0.97400   0.23848   0.18555
H          H       0.76152   0.73552   0.18555
H          H       0.73552   0.97400   0.81445
H          H       0.02600   0.76152   0.81445
H          H       0.23848   0.26448   0.81445
H          H       0.18699   0.36604   0.67329
H          H       0.63396   0.82095   0.67329
H          H       0.17905   0.81301   0.67329
H          H       0.81301   0.63396   0.32671
H          H       0.36604   0.17905   0.32671
H          H       0.82095   0.18699   0.32671
H          H       0.12739   0.08562   0.67190
H          H       0.91438   0.04177   0.67190
H          H       0.95823   0.87261   0.67190
H          H       0.87261   0.91438   0.32810
H          H       0.08562   0.95823   0.32810
H          H       0.04177   0.12739   0.32810
H          H       0.14068   0.28827   0.17339
H          H       0.71173   0.85241   0.17339
H          H       0.14759   0.85932   0.17339
H          H       0.85932   0.71173   0.82661
H          H       0.28827   0.14759   0.82661
H          H       0.85241   0.14068   0.82661
H          H       0.22401   0.57527   0.17318
H          H       0.42473   0.64874   0.17318
H          H       0.35126   0.77599   0.17318
H          H       0.77599   0.42473   0.82682
H          H       0.57527   0.35126   0.82682
H          H       0.64874   0.22401   0.82682
N          N       0.65073   0.81040   0.27248
N          N       0.18960   0.84033   0.27248
N          N       0.15967   0.34927   0.27248
N          N       0.34927   0.18960   0.72752
N          N       0.81040   0.15967   0.72752
N          N       0.84033   0.65073   0.72752
N          N       0.69523   0.86392   0.57339
N          N       0.13608   0.83131   0.57339
N          N       0.16869   0.30477   0.57339
N          N       0.30477   0.13608   0.42661
N          N       0.86392   0.16869   0.42661
N          N       0.83131   0.69523   0.42661
N          N       0.35176   0.18525   0.92633
N          N       0.81475   0.16651   0.92633
N          N       0.83349   0.64824   0.92633
N          N       0.64824   0.81475   0.07367
N          N       0.18525   0.83349   0.07367
N          N       0.16651   0.35176   0.07367
N          N       0.30378   0.13362   0.22766
N          N       0.86638   0.17016   0.22766
N          N       0.82984   0.69622   0.22766
N          N       0.69622   0.86638   0.77234
N          N       0.13362   0.82984   0.77234
N          N       0.17016   0.30378   0.77234
