data_crystal

_cell_length_a    25.47000
_cell_length_b    25.47000
_cell_length_c    25.47000
_cell_angle_alpha 90.00000
_cell_angle_beta  90.00000
_cell_angle_gamma 120.00000

_symmetry_space_group_name_Hall 'P 1'
_symmetry_space_group_name_H-M  'P 1'

loop_
_symmetry_equiv_pos_as_xyz
 'x,y,z'

loop_
_atom_site_label
_atom_site_type_symbol
_atom_site_fract_x
_atom_site_fract_y
_atom_site_fract_z
C          C       0.77814   0.88764   0.62538
C          C       0.11236   0.89050   0.62538
C          C       0.10950   0.22186   0.62538
C          C       0.22186   0.11236   0.37462
C          C       0.88764   0.10950   0.37462
C          C       0.89050   0.77814   0.37462
C          C       0.84238   0.92407   0.62687
C          C       0.07593   0.91831   0.62687
C          C       0.08169   0.15762   0.62687
C          C       0.15762   0.07593   0.37313
C          C       0.92407   0.08169   0.37313
C          C       0.91831   0.84238   0.37313
C          C       0.93724   0.97082   0.57691
C          C       0.02918   0.96642   0.57691
C          C       0.03358   0.06276   0.57691
C          C       0.06276   0.02918   0.42309
C          C       0.97082   0.03358   0.42309
C          C       0.96642   0.93724   0.42309
C          C       0.97032   0.03408   0.57697
C          C       0.96592   0.93624   0.57697
C          C       0.06376   0.02968   0.57697
C          C       0.02968   0.96592   0.42303
C          C       0.03408   0.06376   0.42303
C          C       0.93624   0.97032   0.42303
C          C       0.55551   0.77903   0.12527
C          C       0.22097   0.77648   0.12527
C          C       0.22352   0.44449   0.12527
C          C       0.44449   0.22097   0.87473
C          C       0.77903   0.22352   0.87473
C          C       0.77648   0.55551   0.87473
C          C       0.49118   0.74263   0.12685
C          C       0.25737   0.74855   0.12685
C          C       0.25145   0.50882   0.12685
C          C       0.50882   0.25737   0.87315
C          C       0.74263   0.25145   0.87315
C          C       0.74855   0.49118   0.87315
C          C       0.39614   0.69565   0.07678
C          C       0.30435   0.70049   0.07678
C          C       0.29951   0.60386   0.07678
C          C       0.60386   0.30435   0.92322
C          C       0.69565   0.29951   0.92322
C          C       0.70049   0.39614   0.92322
C          C       0.36280   0.63236   0.07677
C          C       0.36764   0.73044   0.07677
C          C       0.26956   0.63720   0.07677
C          C       0.63720   0.36764   0.92323
C          C       0.63236   0.26956   0.92323
C          C       0.73044   0.36280   0.92323
C          C       0.61125   0.78165   0.43931
C          C       0.21835   0.82960   0.43931
C          C       0.17040   0.38875   0.43931
C          C       0.38875   0.21835   0.56069
C          C       0.78165   0.17040   0.56069
C          C       0.82960   0.61125   0.56069
C          C       0.65190   0.80592   0.48577
C          C       0.19408   0.84598   0.48577
C          C       0.15402   0.34810   0.48577
C          C       0.34810   0.19408   0.51423
C          C       0.80592   0.15402   0.51423
C          C       0.84598   0.65190   0.51423
C          C       0.58164   0.78001   0.33635
C          C       0.21999   0.80163   0.33635
C          C       0.19837   0.41836   0.33635
C          C       0.41836   0.21999   0.66365
C          C       0.78001   0.19837   0.66365
C          C       0.80163   0.58164   0.66365
C          C       0.62585   0.80714   0.38297
C          C       0.19286   0.81871   0.38297
C          C       0.18129   0.37415   0.38297
C          C       0.37415   0.19286   0.61703
C          C       0.80714   0.18129   0.61703
C          C       0.81871   0.62585   0.61703
C          C       0.71010   0.85849   0.47624
C          C       0.14151   0.85161   0.47624
C          C       0.14839   0.28990   0.47624
C          C       0.28990   0.14151   0.52376
C          C       0.85849   0.14839   0.52376
C          C       0.85161   0.71010   0.52376
C          C       0.72475   0.88395   0.41981
C          C       0.11605   0.84080   0.41981
C          C       0.15920   0.27525   0.41981
C          C       0.27525   0.11605   0.58019
C          C       0.88395   0.15920   0.58019
C          C       0.84080   0.72475   0.58019
C          C       0.68432   0.85933   0.37326
C          C       0.14067   0.82499   0.37326
C          C       0.17501   0.31568   0.37326
C          C       0.31568   0.14067   0.62674
C          C       0.85933   0.17501   0.62674
C          C       0.82499   0.68432   0.62674
C          C       0.75338   0.88636   0.52342
C          C       0.11364   0.86702   0.52342
C          C       0.13298   0.24662   0.52342
C          C       0.24662   0.11364   0.47658
C          C       0.88636   0.13298   0.47658
C          C       0.86702   0.75338   0.47658
C          C       0.22203   0.11180   0.26527
C          C       0.88820   0.11023   0.26527
C          C       0.88977   0.77797   0.26527
C          C       0.77797   0.88820   0.73473
C          C       0.11180   0.88977   0.73473
C          C       0.11023   0.22203   0.73473
C          C       0.15766   0.07552   0.26671
C          C       0.92448   0.08214   0.26671
C          C       0.91786   0.84234   0.26671
C          C       0.84234   0.92448   0.73329
C          C       0.07552   0.91786   0.73329
C          C       0.08214   0.15766   0.73329
C          C       0.06276   0.02871   0.21645
C          C       0.97129   0.03405   0.21645
C          C       0.96595   0.93724   0.21645
C          C       0.93724   0.97129   0.78355
C          C       0.02871   0.96595   0.78355
C          C       0.03405   0.06276   0.78355
C          C       0.02922   0.96543   0.21643
C          C       0.03457   0.06379   0.21643
C          C       0.93621   0.97078   0.21643
C          C       0.97078   0.03457   0.78357
C          C       0.96543   0.93621   0.78357
C          C       0.06379   0.02922   0.78357
C          C       0.44432   0.22112   0.76526
C          C       0.77888   0.22320   0.76526
C          C       0.77680   0.55568   0.76526
C          C       0.55568   0.77888   0.23474
C          C       0.22112   0.77680   0.23474
C          C       0.22320   0.44432   0.23474
C          C       0.50871   0.25751   0.76656
C          C       0.74249   0.25120   0.76656
C          C       0.74880   0.49129   0.76656
C          C       0.49129   0.74249   0.23344
C          C       0.25751   0.74880   0.23344
C          C       0.25120   0.50871   0.23344
C          C       0.60381   0.30442   0.71637
C          C       0.69558   0.29939   0.71637
C          C       0.70061   0.39619   0.71637
C          C       0.39619   0.69558   0.28363
C          C       0.30442   0.70061   0.28363
C          C       0.29939   0.60381   0.28363
C          C       0.63730   0.36773   0.71636
C          C       0.63227   0.26957   0.71636
C          C       0.73043   0.36270   0.71636
C          C       0.36270   0.63227   0.28364
C          C       0.36773   0.73043   0.28364
C          C       0.26957   0.63730   0.28364
C          C       0.39138   0.21440   0.08063
C          C       0.78560   0.17698   0.08063
C          C       0.82302   0.60862   0.08063
C          C       0.60862   0.78560   0.91937
C          C       0.21440   0.82302   0.91937
C          C       0.17698   0.39138   0.91937
C          C       0.35051   0.19051   0.12692
C          C       0.80949   0.16000   0.12692
C          C       0.84000   0.64949   0.12692
C          C       0.64949   0.80949   0.87308
C          C       0.19051   0.84000   0.87308
C          C       0.16000   0.35051   0.87308
C          C       0.41974   0.21802   0.97702
C          C       0.78198   0.20172   0.97702
C          C       0.79828   0.58026   0.97702
C          C       0.58026   0.78198   0.02298
C          C       0.21802   0.79828   0.02298
C          C       0.20172   0.41974   0.02298
C          C       0.37557   0.19095   0.02358
C          C       0.80905   0.18462   0.02358
C          C       0.81538   0.62443   0.02358
C          C       0.62443   0.80905   0.97642
C          C       0.19095   0.81538   0.97642
C          C       0.18462   0.37557   0.97642
C          C       0.29075   0.14067   0.11641
C          C       0.85933   0.15008   0.11641
C          C       0.84992   0.70925   0.11641
C          C       0.70925   0.85933   0.88359
C          C       0.14067   0.84992   0.88359
C          C       0.15008   0.29075   0.88359
C          C       0.27494   0.11717   0.05936
C          C       0.88283   0.15777   0.05936
C          C       0.84223   0.72506   0.05936
C          C       0.72506   0.88283   0.94064
C          C       0.11717   0.84223   0.94064
C          C       0.15777   0.27494   0.94064
C          C       0.31578   0.14120   0.01304
C          C       0.85880   0.17458   0.01304
C          C       0.82542   0.68422   0.01304
C          C       0.68422   0.85880   0.98696
C          C       0.14120   0.82542   0.98696
C          C       0.17458   0.31578   0.98696
C          C       0.24654   0.11388   0.16303
C          C       0.88612   0.13266   0.16303
C          C       0.86734   0.75346   0.16303
C          C       0.75346   0.88612   0.83697
C          C       0.11388   0.86734   0.83697
C          C       0.13266   0.24654   0.83697
C          C       0.12132   0.25086   0.68003
C          C       0.74914   0.87046   0.68003
C          C       0.12954   0.87868   0.68003
C          C       0.87868   0.74914   0.31997
C          C       0.25086   0.12954   0.31997
C          C       0.87046   0.12132   0.31997
C          C       0.06819   0.12708   0.68006
C          C       0.87292   0.94111   0.68006
C          C       0.05889   0.93181   0.68006
C          C       0.93181   0.87292   0.31994
C          C       0.12708   0.05889   0.31994
C          C       0.94111   0.06819   0.31994
C          C       0.21193   0.41562   0.17998
C          C       0.58438   0.79631   0.17998
C          C       0.20369   0.78807   0.17998
C          C       0.78807   0.58438   0.82002
C          C       0.41562   0.20369   0.82002
C          C       0.79631   0.21193   0.82002
C          C       0.26497   0.53924   0.18016
C          C       0.46076   0.72573   0.18016
C          C       0.27427   0.73503   0.18016
C          C       0.73503   0.46076   0.81984
C          C       0.53924   0.27427   0.81984
C          C       0.72573   0.26497   0.81984
O          O       0.87405   0.94142   0.57459
O          O       0.05858   0.93263   0.57459
O          O       0.06737   0.12595   0.57459
O          O       0.12595   0.05858   0.42541
O          O       0.94142   0.06737   0.42541
O          O       0.93263   0.87405   0.42541
O          O       0.45938   0.72484   0.07474
O          O       0.27516   0.73454   0.07474
O          O       0.26546   0.54062   0.07474
O          O       0.54062   0.27516   0.92526
O          O       0.72484   0.26546   0.92526
O          O       0.73454   0.45938   0.92526
O          O       0.63559   0.77975   0.53885
O          O       0.22025   0.85584   0.53885
O          O       0.14416   0.36441   0.53885
O          O       0.36441   0.22025   0.46115
O          O       0.77975   0.14416   0.46115
O          O       0.85584   0.63559   0.46115
O          O       0.70073   0.88505   0.31987
O          O       0.11495   0.81568   0.31987
O          O       0.18432   0.29927   0.31987
O          O       0.29927   0.11495   0.68013
O          O       0.88505   0.18432   0.68013
O          O       0.81568   0.70073   0.68013
O          O       0.12604   0.05761   0.21460
O          O       0.94239   0.06843   0.21460
O          O       0.93157   0.87396   0.21460
O          O       0.87396   0.94239   0.78540
O          O       0.05761   0.93157   0.78540
O          O       0.06843   0.12604   0.78540
O          O       0.54050   0.27531   0.71440
O          O       0.72469   0.26519   0.71440
O          O       0.73481   0.45950   0.71440
O          O       0.45950   0.72469   0.28560
O          O       0.27531   0.73481   0.28560
O          O       0.26519   0.54050   0.28560
O          O       0.36786   0.21458   0.18075
O          O       0.78542   0.15328   0.18075
O          O       0.84672   0.63214   0.18075
O          O       0.63214   0.78542   0.81925
O          O       0.21458   0.84672   0.81925
O          O       0.15328   0.36786   0.81925
O          O       0.29840   0.11738   0.95905
O          O       0.88262   0.18102   0.95905
O          O       0.81898   0.70160   0.95905
O          O       0.70160   0.88262   0.04095
O          O       0.11738   0.81898   0.04095
O          O       0.18102   0.29840   0.04095
H          H       0.94726   0.06037   0.57716
H          H       0.93963   0.88689   0.57716
H          H       0.11311   0.05274   0.57716
H          H       0.05274   0.93963   0.42284
H          H       0.06037   0.11311   0.42284
H          H       0.88689   0.94726   0.42284
H          H       0.38557   0.60580   0.07691
H          H       0.39420   0.77977   0.07691
H          H       0.22023   0.61443   0.07691
H          H       0.61443   0.39420   0.92309
H          H       0.60580   0.22023   0.92309
H          H       0.77977   0.38557   0.92309
H          H       0.56695   0.74188   0.44750
H          H       0.25812   0.82507   0.44750
H          H       0.17493   0.43305   0.44750
H          H       0.43305   0.25812   0.55250
H          H       0.74188   0.17493   0.55250
H          H       0.82507   0.56695   0.55250
H          H       0.67118   0.80543   0.56566
H          H       0.19457   0.86575   0.56566
H          H       0.13425   0.32882   0.56566
H          H       0.32882   0.19457   0.43434
H          H       0.80543   0.13425   0.43434
H          H       0.86575   0.67118   0.43434
H          H       0.53797   0.74028   0.34797
H          H       0.25972   0.79769   0.34797
H          H       0.20231   0.46203   0.34797
H          H       0.46203   0.25972   0.65203
H          H       0.74028   0.20231   0.65203
H          H       0.79769   0.53797   0.65203
H          H       0.76861   0.92448   0.41189
H          H       0.07552   0.84413   0.41189
H          H       0.15587   0.23139   0.41189
H          H       0.23139   0.07552   0.58811
H          H       0.92448   0.15587   0.58811
H          H       0.84413   0.76861   0.58811
H          H       0.66467   0.85977   0.29345
H          H       0.14023   0.80490   0.29345
H          H       0.19510   0.33533   0.29345
H          H       0.33533   0.14023   0.70655
H          H       0.85977   0.19510   0.70655
H          H       0.80490   0.66467   0.70655
H          H       0.79652   0.92710   0.51245
H          H       0.07290   0.86942   0.51245
H          H       0.13058   0.20348   0.51245
H          H       0.20348   0.07290   0.48755
H          H       0.92710   0.13058   0.48755
H          H       0.86942   0.79652   0.48755
H          H       0.05175   0.93865   0.21681
H          H       0.06135   0.11310   0.21681
H          H       0.88690   0.94825   0.21681
H          H       0.94825   0.06135   0.78319
H          H       0.93865   0.88690   0.78319
H          H       0.11310   0.05175   0.78319
H          H       0.61460   0.39435   0.71661
H          H       0.60565   0.22025   0.71661
H          H       0.77975   0.38540   0.71661
H          H       0.38540   0.60565   0.28339
H          H       0.39435   0.77975   0.28339
H          H       0.22025   0.61460   0.28339
H          H       0.43669   0.25239   0.08933
H          H       0.74761   0.18430   0.08933
H          H       0.81570   0.56331   0.08933
H          H       0.56331   0.74761   0.91067
H          H       0.25239   0.81570   0.91067
H          H       0.18430   0.43669   0.91067
H          H       0.33144   0.18992   0.20701
H          H       0.81008   0.14152   0.20701
H          H       0.85848   0.66856   0.20701
H          H       0.66856   0.81008   0.79299
H          H       0.18992   0.85848   0.79299
H          H       0.14152   0.33144   0.79299
H          H       0.46424   0.25617   0.98915
H          H       0.74383   0.20807   0.98915
H          H       0.79193   0.53576   0.98915
H          H       0.53576   0.74383   0.01085
H          H       0.25617   0.79193   0.01085
H          H       0.20807   0.46424   0.01085
H          H       0.22960   0.07920   0.05069
H          H       0.92080   0.15040   0.05069
H          H       0.84960   0.77040   0.05069
H          H       0.77040   0.92080   0.94931
H          H       0.07920   0.84960   0.94931
H          H       0.15040   0.22960   0.94931
H          H       0.33484   0.14215   0.93291
H          H       0.85785   0.19269   0.93291
H          H       0.80731   0.66516   0.93291
H          H       0.66516   0.85785   0.06709
H          H       0.14215   0.80731   0.06709
H          H       0.19269   0.33484   0.06709
H          H       0.20195   0.07580   0.15101
H          H       0.92420   0.12615   0.15101
H          H       0.87385   0.79805   0.15101
H          H       0.79805   0.92420   0.84899
H          H       0.07580   0.87385   0.84899
H          H       0.12615   0.20195   0.84899
H          H       0.14150   0.30003   0.68002
H          H       0.69997   0.84147   0.68002
H          H       0.15853   0.85850   0.68002
H          H       0.85850   0.69997   0.31998
H          H       0.30003   0.15853   0.31998
H          H       0.84147   0.14150   0.31998
H          H       0.04662   0.07792   0.68014
H          H       0.92208   0.96870   0.68014
H          H       0.03130   0.95338   0.68014
H          H       0.95338   0.92208   0.31986
H          H       0.07792   0.03130   0.31986
H          H       0.96870   0.04662   0.31986
H          H       0.19174   0.36646   0.17988
H          H       0.63354   0.82528   0.17988
H          H       0.17472   0.80826   0.17988
H          H       0.80826   0.63354   0.82012
H          H       0.36646   0.17472   0.82012
H          H       0.82528   0.19174   0.82012
H          H       0.28650   0.58842   0.18018
H          H       0.41158   0.69808   0.18018
H          H       0.30192   0.71350   0.18018
H          H       0.71350   0.41158   0.81982
H          H       0.58842   0.30192   0.81982
H          H       0.69808   0.28650   0.81982
N          N       0.59399   0.80144   0.28327
N          N       0.19856   0.79255   0.28327
N          N       0.20745   0.40601   0.28327
N          N       0.40601   0.19856   0.71673
N          N       0.80144   0.20745   0.71673
N          N       0.79255   0.59399   0.71673
N          N       0.74069   0.86462   0.57638
N          N       0.13538   0.87607   0.57638
N          N       0.12393   0.25931   0.57638
N          N       0.25931   0.13538   0.42362
N          N       0.86462   0.12393   0.42362
N          N       0.87607   0.74069   0.42362
N          N       0.40645   0.19835   0.92337
N          N       0.80165   0.20810   0.92337
N          N       0.79190   0.59355   0.92337
N          N       0.59355   0.80165   0.07663
N          N       0.19835   0.79190   0.07663
N          N       0.20810   0.40645   0.07663
N          N       0.26001   0.13385   0.21657
N          N       0.86615   0.12616   0.21657
N          N       0.87384   0.73999   0.21657
N          N       0.73999   0.86615   0.78343
N          N       0.13385   0.87384   0.78343
N          N       0.12616   0.26001   0.78343
