data_crystal

_cell_length_a    47.04000
_cell_length_b    47.04000
_cell_length_c    9.02000
_cell_angle_alpha 90.00000
_cell_angle_beta  90.00000
_cell_angle_gamma 120.00000

_space_group_name_Hall 'P 1'
_space_group_name_H-M_alt  'P 1'

loop_
_symmetry_equiv_pos_as_xyz
'x,y,z'

loop_
_atom_site_label
_atom_site_type_symbol
_atom_site_fract_x
_atom_site_fract_y
_atom_site_fract_z
C          C       0.48802   0.48636   0.00722
C          C       0.51766   0.51624   0.01652
C          C       0.52049   0.55016   0.00847
C          C       0.55038   0.51755   0.02307
C          C       0.48466   0.45242   0.01047
C          C       0.45570   0.48486   0.48884
C          C       0.54876   0.57689   0.44403
C          C       0.55302   0.60848   0.43820
C          C       0.52898   0.61457   0.49424
C          C       0.50095   0.58881   0.05991
C          C       0.49685   0.55734   0.06659
C          C       0.55737   0.49856   0.42730
C          C       0.58807   0.50108   0.42318
C          C       0.61348   0.52384   0.01230
C          C       0.60735   0.54356   0.10977
C          C       0.57595   0.54011   0.11539
C          C       0.45129   0.50299   0.37834
C          C       0.42148   0.50248   0.36235
C          C       0.39446   0.48123   0.44927
C          C       0.39807   0.46132   0.05536
C          C       0.42844   0.46333   0.07517
C          C       0.45930   0.42606   0.42975
C          C       0.45338   0.39390   0.44418
C          C       0.47330   0.38728   0.03573
C          C       0.49906   0.41316   0.11320
C          C       0.50436   0.44494   0.10033
N          N       0.53415   0.64731   0.48974
N          N       0.64476   0.52587   0.49696
N          N       0.46614   0.35409   0.05543
N          N       0.36446   0.48196   0.43538
C          C       0.67237   0.54585   0.06116
C          C       0.33555   0.45720   0.46405
C          C       0.70168   0.54330   0.02626
C          C       0.30638   0.46109   0.46535
C          C       0.69996   0.51992   0.42413
C          C       0.72748   0.51705   0.39487
C          C       0.75717   0.53767   0.46875
C          C       0.75832   0.56051   0.06590
C          C       0.73180   0.56392   0.09531
C          C       0.30900   0.49206   0.45104
C          C       0.28200   0.49523   0.46735
C          C       0.25169   0.46899   0.49425
C          C       0.24796   0.43753   0.00646
C          C       0.27541   0.43373   0.49223
C          C       0.78697   0.53468   0.45071
C          C       0.22400   0.47466   0.02008
C          C       0.22996   0.50326   0.08522
C          C       0.20551   0.50978   0.11650
C          C       0.17291   0.48682   0.08122
C          C       0.16624   0.45740   0.01158
C          C       0.19173   0.45124   0.48075
C          C       0.14651   0.49386   0.11721
N          N       0.11641   0.47340   0.07908
C          C       0.08854   0.47729   0.10741
C          C       0.08819   0.49780   0.21984
C          C       0.05994   0.49987   0.24443
C          C       0.03227   0.48344   0.15273
C          C       0.03347   0.46383   0.03811
C          C       0.06054   0.45950   0.02058
C          C       0.00078   0.48492   0.17722
C          C       0.78769   0.51039   0.36162
C          C       0.81562   0.50720   0.36102
C          C       0.84291   0.52816   0.44710
C          C       0.84193   0.55301   0.02941
C          C       0.81428   0.55535   0.03014
C          C       0.87063   0.52207   0.45874
N          N       0.89715   0.54230   0.02983
C          C       0.92316   0.53580   0.06278
C          C       0.91666   0.50426   0.10128
C          C       0.94207   0.49901   0.14577
C          C       0.97496   0.52474   0.15077
C          C       0.98086   0.55646   0.11101
C          C       0.95533   0.56183   0.06920
C          C       0.00277   0.51922   0.21028
C          C       0.03641   0.55046   0.20995
C          C       0.05993   0.55614   0.10172
C          C       0.09051   0.58467   0.10206
C          C       0.09713   0.61000   0.20130
C          C       0.07279   0.60579   0.30424
C          C       0.04305   0.57594   0.30996
N          N       0.12840   0.63950   0.18904
C          C       0.97467   0.45442   0.26025
C          C       0.95673   0.45674   0.37979
C          C       0.92937   0.42860   0.43751
C          C       0.92168   0.39735   0.38856
C          C       0.94077   0.39465   0.27632
C          C       0.96643   0.42261   0.21220
N          N       0.89283   0.36884   0.44338
C          C       0.51062   0.65393   0.47417
C          C       0.51703   0.68790   0.48324
C          C       0.48888   0.34638   0.07214
C          C       0.48086   0.31272   0.10920
C          C       0.54714   0.71375   0.03415
C          C       0.55132   0.74435   0.05090
C          C       0.52723   0.75138   0.01758
C          C       0.49686   0.72612   0.46489
C          C       0.49193   0.69451   0.44808
C          C       0.44991   0.28926   0.16402
C          C       0.44424   0.25834   0.20835
C          C       0.46975   0.25108   0.19702
C          C       0.49927   0.27414   0.14080
C          C       0.50539   0.30431   0.09786
C          C       0.53317   0.78492   0.04592
C          C       0.46589   0.21901   0.23909
C          C       0.44224   0.19751   0.34128
C          C       0.44091   0.16787   0.37711
C          C       0.46310   0.15988   0.31185
C          C       0.48641   0.18221   0.21125
C          C       0.48723   0.21070   0.17865
C          C       0.55708   0.80450   0.14412
C          C       0.56317   0.83516   0.17995
C          C       0.54441   0.84758   0.11638
C          C       0.52019   0.82817   0.01215
C          C       0.51463   0.79701   0.47608
C          C       0.46206   0.12868   0.34628
N          N       0.48249   0.12215   0.27855
C          C       0.48584   0.09360   0.28805
C          C       0.54981   0.88014   0.16017
N          N       0.53141   0.89074   0.10387
C          C       0.53234   0.92115   0.13362
C          C       0.46709   0.06699   0.38319
C          C       0.47161   0.03968   0.38172
C          C       0.49377   0.03777   0.28326
C          C       0.51213   0.06471   0.18963
C          C       0.50867   0.09236   0.19382
C          C       0.55229   0.94348   0.24401
C          C       0.55095   0.97218   0.26941
C          C       0.53034   0.97928   0.18264
C          C       0.51214   0.95788   0.06953
C          C       0.51193   0.92842   0.04875
C          C       0.52854   0.01033   0.19932
C          C       0.49642   0.00643   0.27871
C          C       0.46296   0.97558   0.23782
C          C       0.56244   0.03962   0.23662
C          C       0.43590   0.97802   0.18381
C          C       0.40531   0.95016   0.15756
C          C       0.40057   0.91885   0.18341
C          C       0.42663   0.91577   0.23974
C          C       0.45697   0.94356   0.26775
C          C       0.59024   0.04533   0.15371
C          C       0.62124   0.07232   0.18449
C          C       0.62506   0.09478   0.29555
C          C       0.59741   0.08906   0.37892
C          C       0.56705   0.06117   0.35252
N          N       0.65736   0.12216   0.32293
C          C       0.66485   0.14655   0.41304
C          C       0.69919   0.17299   0.43129
C          C       0.89028   0.34007   0.45386
C          C       0.85832   0.31026   0.47954
N          N       0.36848   0.89075   0.16456
C          C       0.13915   0.66663   0.26328
C          C       0.17215   0.69457   0.23123
C          C       0.36318   0.86182   0.12687
C          C       0.32976   0.83311   0.12803
C          C       0.72504   0.17246   0.35601
C          C       0.75715   0.19829   0.37316
C          C       0.76343   0.22469   0.46703
C          C       0.73793   0.22471   0.03861
C          C       0.70647   0.19973   0.02411
C          C       0.82963   0.31164   0.00635
C          C       0.79988   0.28362   0.00552
C          C       0.79668   0.25355   0.48128
C          C       0.82500   0.25100   0.46395
C          C       0.85573   0.27943   0.46267
C          C       0.19293   0.69174   0.12772
C          C       0.22403   0.71836   0.09915
C          C       0.23461   0.74810   0.17515
C          C       0.21381   0.75036   0.27378
C          C       0.18331   0.72473   0.30309
C          C       0.30317   0.83461   0.19010
C          C       0.27328   0.80696   0.20127
C          C       0.26760   0.77717   0.15188
C          C       0.29360   0.77488   0.08670
C          C       0.32455   0.80287   0.07537
H          H       0.56843   0.57394   0.40063
H          H       0.57513   0.62825   0.38919
H          H       0.48222   0.59297   0.10791
H          H       0.47410   0.53899   0.11187
H          H       0.53839   0.48079   0.36053
H          H       0.59224   0.48552   0.34799
H          H       0.62635   0.56153   0.18096
H          H       0.57188   0.55595   0.18715
H          H       0.47209   0.51867   0.31211
H          H       0.41929   0.51822   0.28081
H          H       0.37799   0.44528   0.12760
H          H       0.43068   0.44818   0.15867
H          H       0.44326   0.42996   0.35805
H          H       0.43329   0.37417   0.38361
H          H       0.51467   0.40877   0.18690
H          H       0.52471   0.46374   0.15680
H          H       0.67429   0.56422   0.13926
H          H       0.33256   0.43344   0.49210
H          H       0.67727   0.50366   0.36674
H          H       0.72488   0.49869   0.31563
H          H       0.73413   0.58231   0.17451
H          H       0.33255   0.51384   0.43125
H          H       0.22441   0.41630   0.03261
H          H       0.27260   0.40955   0.00560
H          H       0.21154   0.53281   0.16944
H          H       0.14139   0.43916   0.48131
H          H       0.18629   0.42862   0.42547
H          H       0.15286   0.51680   0.17182
H          H       0.10894   0.51116   0.29316
H          H       0.06004   0.51475   0.33398
H          H       0.01340   0.45154   0.46134
H          H       0.06030   0.44342   0.43376
H          H       0.76708   0.49336   0.29513
H          H       0.81567   0.48790   0.29538
H          H       0.86254   0.56974   0.09759
H          H       0.86810   0.49971   0.41118
H          H       0.89176   0.48373   0.10162
H          H       0.93522   0.47436   0.17330
H          H       0.00503   0.57784   0.11352
H          H       0.96064   0.58647   0.04210
H          H       0.05446   0.53844   0.01638
H          H       0.10859   0.58773   0.01946
H          H       0.07653   0.62488   0.38180
H          H       0.02456   0.57305   0.38865
H          H       0.96235   0.48056   0.41934
H          H       0.91409   0.43088   0.02084
H          H       0.93471   0.37093   0.23119
H          H       0.97841   0.41844   0.12049
H          H       0.48564   0.63435   0.45445
H          H       0.51455   0.36499   0.06022
H          H       0.56705   0.70955   0.06386
H          H       0.47661   0.73018   0.44139
H          H       0.46827   0.67505   0.40988
H          H       0.43038   0.29499   0.17492
H          H       0.42018   0.24042   0.24899
H          H       0.52951   0.32177   0.05577
H          H       0.42546   0.20366   0.39536
H          H       0.42280   0.15135   0.45619
H          H       0.50403   0.17716   0.15773
H          H       0.58218   0.84950   0.26018
H          H       0.50549   0.83702   0.45817
H          H       0.49631   0.78295   0.39297
H          H       0.44410   0.11155   0.42395
H          H       0.56895   0.89461   0.23940
H          H       0.44909   0.06698   0.45792
H          H       0.45653   0.01904   0.45103
H          H       0.52967   0.06502   0.11453
H          H       0.52338   0.11274   0.12000
H          H       0.56819   0.93871   0.31339
H          H       0.56589   0.98871   0.35689
H          H       0.49676   0.96390   0.00474
H          H       0.49630   0.91140   0.46412
H          H       0.43734   0.00136   0.16703
H          H       0.38509   0.95303   0.11853
H          H       0.42339   0.89187   0.26648
H          H       0.47567   0.93903   0.30907
H          H       0.58799   0.02890   0.06449
H          H       0.64224   0.07610   0.11940
H          H       0.59894   0.10491   0.46899
H          H       0.54700   0.05637   0.42256
H          H       0.64618   0.14841   0.47502
H          H       0.91130   0.33713   0.43067
H          H       0.12423   0.66943   0.34693
H          H       0.38352   0.85821   0.09739
H          H       0.72044   0.15241   0.28216
H          H       0.77655   0.19804   0.30950
H          H       0.68712   0.20096   0.08390
H          H       0.83066   0.33496   0.02219
H          H       0.82349   0.22743   0.44930
H          H       0.87740   0.27741   0.44320
H          H       0.18514   0.66903   0.06785
H          H       0.23902   0.71551   0.01619
H          H       0.16792   0.72785   0.38333
H          H       0.30625   0.85747   0.23323
H          H       0.29074   0.75179   0.04888
H          H       0.34460   0.80074   0.02809
C          C       0.48802   0.48636   0.50722
C          C       0.51766   0.51624   0.51652
C          C       0.52049   0.55016   0.50847
C          C       0.55038   0.51755   0.52307
C          C       0.48466   0.45242   0.51047
C          C       0.45570   0.48486   0.98883
C          C       0.54876   0.57689   0.94403
C          C       0.55302   0.60848   0.93820
C          C       0.52898   0.61457   0.99424
C          C       0.50095   0.58881   0.55991
C          C       0.49685   0.55734   0.56659
C          C       0.55737   0.49856   0.92730
C          C       0.58807   0.50108   0.92318
C          C       0.61348   0.52384   0.51230
C          C       0.60735   0.54356   0.60977
C          C       0.57595   0.54011   0.61539
C          C       0.45129   0.50299   0.87834
C          C       0.42148   0.50248   0.86235
C          C       0.39446   0.48123   0.94927
C          C       0.39807   0.46132   0.55536
C          C       0.42844   0.46333   0.57517
C          C       0.45930   0.42606   0.92975
C          C       0.45338   0.39390   0.94418
C          C       0.47330   0.38728   0.53573
C          C       0.49906   0.41316   0.61321
C          C       0.50436   0.44494   0.60033
N          N       0.53415   0.64731   0.98974
N          N       0.64476   0.52587   0.99696
N          N       0.46614   0.35409   0.55543
N          N       0.36446   0.48196   0.93537
C          C       0.67237   0.54585   0.56116
C          C       0.33555   0.45720   0.96405
C          C       0.70168   0.54330   0.52626
C          C       0.30638   0.46109   0.96535
C          C       0.69996   0.51992   0.92413
C          C       0.72748   0.51705   0.89487
C          C       0.75717   0.53767   0.96875
C          C       0.75832   0.56051   0.56590
C          C       0.73180   0.56392   0.59531
C          C       0.30900   0.49206   0.95104
C          C       0.28200   0.49523   0.96735
C          C       0.25169   0.46899   0.99424
C          C       0.24796   0.43753   0.50646
C          C       0.27541   0.43373   0.99223
C          C       0.78697   0.53468   0.95071
C          C       0.22400   0.47466   0.52008
C          C       0.22996   0.50326   0.58522
C          C       0.20551   0.50978   0.61650
C          C       0.17291   0.48682   0.58122
C          C       0.16624   0.45740   0.51158
C          C       0.19173   0.45124   0.98075
C          C       0.14651   0.49386   0.61721
N          N       0.11641   0.47340   0.57908
C          C       0.08854   0.47729   0.60741
C          C       0.08819   0.49780   0.71984
C          C       0.05994   0.49987   0.74443
C          C       0.03227   0.48344   0.65273
C          C       0.03347   0.46383   0.53811
C          C       0.06054   0.45950   0.52058
C          C       0.00078   0.48492   0.67722
C          C       0.78769   0.51039   0.86162
C          C       0.81562   0.50720   0.86103
C          C       0.84291   0.52816   0.94710
C          C       0.84193   0.55301   0.52941
C          C       0.81428   0.55535   0.53014
C          C       0.87063   0.52207   0.95874
N          N       0.89715   0.54230   0.52983
C          C       0.92316   0.53580   0.56278
C          C       0.91666   0.50426   0.60128
C          C       0.94207   0.49901   0.64577
C          C       0.97496   0.52474   0.65077
C          C       0.98086   0.55646   0.61101
C          C       0.95533   0.56183   0.56920
C          C       0.00277   0.51922   0.71028
C          C       0.03641   0.55046   0.70995
C          C       0.05993   0.55614   0.60172
C          C       0.09051   0.58467   0.60206
C          C       0.09713   0.61000   0.70130
C          C       0.07279   0.60579   0.80424
C          C       0.04305   0.57594   0.80996
N          N       0.12840   0.63950   0.68904
C          C       0.97467   0.45442   0.76025
C          C       0.95673   0.45674   0.87979
C          C       0.92937   0.42860   0.93751
C          C       0.92168   0.39735   0.88857
C          C       0.94077   0.39465   0.77632
C          C       0.96643   0.42261   0.71220
N          N       0.89283   0.36884   0.94338
C          C       0.51062   0.65393   0.97417
C          C       0.51703   0.68790   0.98324
C          C       0.48888   0.34638   0.57214
C          C       0.48086   0.31272   0.60920
C          C       0.54714   0.71375   0.53415
C          C       0.55132   0.74435   0.55090
C          C       0.52723   0.75138   0.51758
C          C       0.49686   0.72612   0.96489
C          C       0.49193   0.69451   0.94808
C          C       0.44991   0.28926   0.66402
C          C       0.44424   0.25834   0.70835
C          C       0.46975   0.25108   0.69702
C          C       0.49927   0.27414   0.64080
C          C       0.50539   0.30431   0.59786
C          C       0.53317   0.78492   0.54592
C          C       0.46589   0.21901   0.73909
C          C       0.44224   0.19751   0.84128
C          C       0.44091   0.16787   0.87711
C          C       0.46310   0.15988   0.81185
C          C       0.48641   0.18221   0.71125
C          C       0.48723   0.21070   0.67865
C          C       0.55708   0.80450   0.64412
C          C       0.56317   0.83516   0.67995
C          C       0.54441   0.84758   0.61638
C          C       0.52019   0.82817   0.51215
C          C       0.51463   0.79701   0.97608
C          C       0.46206   0.12868   0.84628
N          N       0.48249   0.12215   0.77855
C          C       0.48584   0.09360   0.78805
C          C       0.54981   0.88014   0.66017
N          N       0.53141   0.89074   0.60387
C          C       0.53234   0.92115   0.63362
C          C       0.46709   0.06699   0.88319
C          C       0.47161   0.03968   0.88172
C          C       0.49377   0.03777   0.78326
C          C       0.51213   0.06471   0.68963
C          C       0.50867   0.09236   0.69382
C          C       0.55229   0.94348   0.74401
C          C       0.55095   0.97218   0.76941
C          C       0.53034   0.97928   0.68264
C          C       0.51214   0.95788   0.56953
C          C       0.51193   0.92842   0.54875
C          C       0.52854   0.01033   0.69932
C          C       0.49642   0.00643   0.77871
C          C       0.46296   0.97558   0.73782
C          C       0.56244   0.03962   0.73662
C          C       0.43590   0.97802   0.68381
C          C       0.40531   0.95016   0.65756
C          C       0.40057   0.91885   0.68341
C          C       0.42663   0.91577   0.73974
C          C       0.45697   0.94356   0.76775
C          C       0.59024   0.04533   0.65371
C          C       0.62124   0.07232   0.68449
C          C       0.62506   0.09478   0.79555
C          C       0.59741   0.08906   0.87892
C          C       0.56705   0.06117   0.85252
N          N       0.65736   0.12216   0.82293
C          C       0.66485   0.14655   0.91304
C          C       0.69919   0.17299   0.93129
C          C       0.89028   0.34007   0.95386
C          C       0.85832   0.31026   0.97954
N          N       0.36848   0.89075   0.66456
C          C       0.13915   0.66663   0.76328
C          C       0.17215   0.69457   0.73123
C          C       0.36318   0.86182   0.62687
C          C       0.32976   0.83311   0.62803
C          C       0.72504   0.17246   0.85601
C          C       0.75715   0.19829   0.87316
C          C       0.76343   0.22469   0.96703
C          C       0.73793   0.22471   0.53861
C          C       0.70647   0.19973   0.52411
C          C       0.82963   0.31164   0.50635
C          C       0.79988   0.28362   0.50552
C          C       0.79668   0.25355   0.98128
C          C       0.82500   0.25100   0.96395
C          C       0.85573   0.27943   0.96267
C          C       0.19293   0.69174   0.62772
C          C       0.22403   0.71836   0.59915
C          C       0.23461   0.74810   0.67515
C          C       0.21381   0.75036   0.77378
C          C       0.18331   0.72473   0.80309
C          C       0.30317   0.83461   0.69010
C          C       0.27328   0.80696   0.70127
C          C       0.26760   0.77717   0.65188
C          C       0.29360   0.77488   0.58670
C          C       0.32455   0.80287   0.57537
H          H       0.56843   0.57394   0.90062
H          H       0.57513   0.62825   0.88919
H          H       0.48222   0.59297   0.60791
H          H       0.47410   0.53899   0.61187
H          H       0.53839   0.48079   0.86053
H          H       0.59224   0.48552   0.84799
H          H       0.62635   0.56153   0.68096
H          H       0.57188   0.55595   0.68715
H          H       0.47209   0.51867   0.81211
H          H       0.41929   0.51822   0.78080
H          H       0.37799   0.44528   0.62760
H          H       0.43068   0.44818   0.65867
H          H       0.44326   0.42996   0.85805
H          H       0.43329   0.37417   0.88361
H          H       0.51467   0.40877   0.68690
H          H       0.52471   0.46374   0.65680
H          H       0.67429   0.56422   0.63926
H          H       0.33256   0.43344   0.99210
H          H       0.67727   0.50366   0.86674
H          H       0.72488   0.49869   0.81563
H          H       0.73413   0.58231   0.67451
H          H       0.33255   0.51384   0.93125
H          H       0.22441   0.41630   0.53261
H          H       0.27260   0.40955   0.50560
H          H       0.21154   0.53281   0.66944
H          H       0.14139   0.43916   0.98131
H          H       0.18629   0.42862   0.92547
H          H       0.15286   0.51680   0.67182
H          H       0.10894   0.51116   0.79316
H          H       0.06004   0.51475   0.83398
H          H       0.01340   0.45154   0.96134
H          H       0.06030   0.44342   0.93376
H          H       0.76708   0.49336   0.79513
H          H       0.81567   0.48790   0.79538
H          H       0.86254   0.56974   0.59759
H          H       0.86810   0.49971   0.91118
H          H       0.89176   0.48373   0.60162
H          H       0.93522   0.47436   0.67330
H          H       0.00503   0.57784   0.61352
H          H       0.96064   0.58647   0.54210
H          H       0.05446   0.53844   0.51638
H          H       0.10859   0.58773   0.51946
H          H       0.07653   0.62488   0.88180
H          H       0.02456   0.57305   0.88865
H          H       0.96235   0.48056   0.91934
H          H       0.91409   0.43088   0.52084
H          H       0.93471   0.37093   0.73119
H          H       0.97841   0.41844   0.62049
H          H       0.48564   0.63435   0.95446
H          H       0.51455   0.36499   0.56022
H          H       0.56705   0.70955   0.56386
H          H       0.47661   0.73018   0.94138
H          H       0.46827   0.67505   0.90988
H          H       0.43038   0.29499   0.67492
H          H       0.42018   0.24042   0.74899
H          H       0.52951   0.32177   0.55577
H          H       0.42546   0.20366   0.89536
H          H       0.42280   0.15135   0.95619
H          H       0.50403   0.17716   0.65773
H          H       0.58218   0.84950   0.76018
H          H       0.50549   0.83702   0.95817
H          H       0.49631   0.78295   0.89297
H          H       0.44410   0.11155   0.92395
H          H       0.56895   0.89461   0.73940
H          H       0.44909   0.06698   0.95791
H          H       0.45653   0.01904   0.95104
H          H       0.52967   0.06502   0.61453
H          H       0.52338   0.11274   0.62000
H          H       0.56819   0.93871   0.81339
H          H       0.56589   0.98871   0.85689
H          H       0.49676   0.96390   0.50474
H          H       0.49630   0.91140   0.96413
H          H       0.43734   0.00136   0.66703
H          H       0.38509   0.95303   0.61852
H          H       0.42339   0.89187   0.76648
H          H       0.47567   0.93903   0.80907
H          H       0.58799   0.02890   0.56449
H          H       0.64224   0.07610   0.61939
H          H       0.59894   0.10491   0.96899
H          H       0.54700   0.05637   0.92256
H          H       0.64618   0.14841   0.97502
H          H       0.91130   0.33713   0.93067
H          H       0.12423   0.66943   0.84693
H          H       0.38352   0.85821   0.59739
H          H       0.72044   0.15241   0.78216
H          H       0.77655   0.19804   0.80949
H          H       0.68712   0.20096   0.58390
H          H       0.83066   0.33496   0.52219
H          H       0.82349   0.22743   0.94929
H          H       0.87740   0.27741   0.94320
H          H       0.18514   0.66903   0.56785
H          H       0.23902   0.71551   0.51619
H          H       0.16792   0.72785   0.88334
H          H       0.30625   0.85747   0.73323
H          H       0.29074   0.75179   0.54888
H          H       0.34460   0.80074   0.52809
