data_crystal

_cell_length_a    30.23000
_cell_length_b    30.21000
_cell_length_c    7.52000
_cell_angle_alpha 90.00000
_cell_angle_beta  90.00000
_cell_angle_gamma 60.00000

_space_group_name_Hall 'P 1'
_space_group_name_H-M_alt  'P 1'

loop_
_symmetry_equiv_pos_as_xyz
 'x,y,z'

loop_
_atom_site_label
_atom_site_type_symbol
_atom_site_fract_x
_atom_site_fract_y
_atom_site_fract_z
C          C       0.65494   0.07985   0.88928
C          C       0.59881   0.09348   0.87121
C          C       0.58493   0.05097   0.83679
C          C       0.62812   0.99570   0.81088
C          C       0.68472   0.98099   0.84370
C          C       0.69830   0.02298   0.87432
C          C       0.57209   0.18150   0.94813
C          C       0.62737   0.16816   0.96943
C          C       0.52269   0.02212   0.83782
C          C       0.77190   0.91607   0.91780
C          C       0.56534   0.96821   0.79664
C          C       0.78651   0.95735   0.92799
C          C       0.84110   0.94163   0.97048
H          H       0.85123   0.97421   0.96216
C          C       0.53061   0.23539   0.98480
H          H       0.48889   0.24332   0.96541
C          C       0.63787   0.21016   0.02315
H          H       0.68077   0.19856   0.04283
C          C       0.47048   0.02961   0.88083
H          H       0.43791   0.07127   0.91340
C          C       0.81145   0.86216   0.96818
H          H       0.79804   0.83195   0.96805
C          C       0.55424   0.92500   0.80264
H          H       0.58861   0.88472   0.76731
C          C       0.86430   0.84735   0.02417
C          C       0.88062   0.88873   0.01967
C          C       0.54031   0.27713   0.03796
C          C       0.59681   0.26409   0.05129
C          C       0.46083   0.98622   0.90296
C          C       0.50541   0.93085   0.86943
N          N       0.55816   0.14387   0.89925
N          N       0.66872   0.11670   0.93847
N          N       0.53288   0.06401   0.84749
N          N       0.72086   0.92844   0.86706
N          N       0.61796   0.95545   0.78035
N          N       0.74931   0.01084   0.90741
C          C       0.93467   0.88481   0.05292
C          C       0.98614   0.84200   0.99524
C          C       0.93378   0.93198   0.12459
C          C       0.03177   0.84815   0.99033
H          H       0.99188   0.80270   0.94801
C          C       0.97847   0.93933   0.11247
H          H       0.89677   0.96485   0.19041
C          C       0.02796   0.89837   0.03481
H          H       0.07036   0.81422   0.93670
H          H       0.97449   0.97773   0.16427
C          C       0.89911   0.78895   0.58471
C          C       0.94728   0.77397   0.68606
C          C       0.88721   0.74685   0.54904
C          C       0.98463   0.72032   0.72828
H          H       0.95510   0.80583   0.73599
C          C       0.92373   0.69278   0.59710
H          H       0.84953   0.75520   0.47589
C          C       0.97479   0.67784   0.67826
H          H       0.02124   0.71188   0.80929
H          H       0.91335   0.66122   0.56187
C          C       0.61531   0.30398   0.08050
C          C       0.58209   0.35494   0.16683
C          C       0.66662   0.29361   0.01285
C          C       0.59484   0.39607   0.15881
H          H       0.54488   0.36282   0.24034
C          C       0.68106   0.33382   0.01328
H          H       0.69529   0.25440   0.94693
C          C       0.64350   0.38728   0.07206
H          H       0.56601   0.43570   0.22173
H          H       0.72036   0.32475   0.95126
C          C       0.48782   0.32910   0.06874
C          C       0.47454   0.38157   0.00631
C          C       0.44425   0.32360   0.14235
C          C       0.42086   0.42416   0.00215
H          H       0.50572   0.38995   0.95120
C          C       0.39054   0.36506   0.13114
H          H       0.45211   0.28520   0.20825
C          C       0.37736   0.41586   0.05167
H          H       0.41232   0.46378   0.94456
H          H       0.35854   0.35747   0.18506
C          C       0.40524   0.00013   0.46074
C          C       0.35859   0.05096   0.42070
C          C       0.39663   0.96243   0.56233
C          C       0.30657   0.06140   0.47002
H          H       0.36200   0.08280   0.34289
C          C       0.34511   0.97162   0.60531
H          H       0.43175   0.92502   0.61312
C          C       0.29833   0.02117   0.55663
H          H       0.27123   0.10109   0.43288
H          H       0.34199   0.94018   0.68672
C          C       0.51065   0.87658   0.41460
C          C       0.47126   0.86050   0.39132
C          C       0.56193   0.83633   0.48527
C          C       0.48129   0.80931   0.44805
H          H       0.43128   0.88779   0.32910
C          C       0.57276   0.78474   0.53737
H          H       0.59489   0.84544   0.50680
C          C       0.53192   0.77049   0.52565
H          H       0.44882   0.79915   0.43085
H          H       0.61328   0.75611   0.59440
C          C       0.07291   0.90701   0.98580
H          H       0.11250   0.86979   0.96318
C          C       0.06705   0.95650   0.94443
H          H       0.02694   0.99343   0.96231
C          C       0.11016   0.96467   0.86851
C          C       0.10037   0.01784   0.83198
C          C       0.16215   0.92033   0.82524
C          C       0.14082   0.02667   0.75780
H          H       0.06012   0.05306   0.86453
C          C       0.20225   0.92907   0.75006
H          H       0.17170   0.87820   0.84994
C          C       0.19268   0.98218   0.71417
H          H       0.13181   0.06864   0.73224
H          H       0.24246   0.89384   0.71758
C          C       0.23854   0.98559   0.63870
H          H       0.27400   0.94516   0.60923
C          C       0.24470   0.02945   0.60669
H          H       0.21065   0.07138   0.62325
C          C       0.65164   0.43270   0.02281
C          C       0.60755   0.48259   0.99093
H          H       0.56706   0.48736   0.01752
C          C       0.60522   0.53107   0.91285
C          C       0.55291   0.57512   0.87046
C          C       0.65099   0.53676   0.87483
C          C       0.54632   0.62284   0.79209
H          H       0.51679   0.57143   0.89989
C          C       0.64431   0.58494   0.79857
H          H       0.69228   0.50339   0.90703
C          C       0.59202   0.62865   0.75357
H          H       0.50491   0.65627   0.76265
H          H       0.68040   0.58880   0.77064
C          C       0.58641   0.67836   0.67246
H          H       0.62334   0.68194   0.67409
C          C       0.53940   0.71915   0.59750
H          H       0.50300   0.71471   0.59097
C          C       0.32177   0.45772   0.00749
C          C       0.27998   0.44804   0.97705
H          H       0.28646   0.40674   0.99949
C          C       0.22622   0.48881   0.90941
C          C       0.18409   0.47623   0.89076
C          C       0.21496   0.54149   0.85687
C          C       0.13250   0.51473   0.82615
H          H       0.19189   0.43540   0.93073
C          C       0.16407   0.57939   0.78922
H          H       0.24643   0.55316   0.86692
C          C       0.12163   0.56720   0.77292
H          H       0.10057   0.50366   0.81491
H          H       0.15641   0.62006   0.74802
C          C       0.07009   0.61219   0.70716
H          H       0.07480   0.64590   0.65046
C          C       0.01818   0.62195   0.71781
H          H       0.00797   0.59099   0.76368
H          H       0.69318   0.42416   0.99004
H          H       0.31580   0.49867   0.98136
C          C       0.65530   0.07947   0.38834
C          C       0.59916   0.09309   0.37092
C          C       0.58518   0.05069   0.33586
C          C       0.62826   0.99548   0.30913
C          C       0.68485   0.98070   0.34218
C          C       0.69857   0.02253   0.37349
C          C       0.57248   0.18110   0.44873
C          C       0.62778   0.16779   0.46896
C          C       0.52293   0.02182   0.33765
C          C       0.77178   0.91551   0.41768
C          C       0.56552   0.96795   0.29577
C          C       0.78666   0.95660   0.42763
C          C       0.84132   0.94050   0.47039
H          H       0.85181   0.97279   0.46190
C          C       0.53096   0.23495   0.48590
H          H       0.48918   0.24287   0.46716
C          C       0.63829   0.20988   0.52188
H          H       0.68119   0.19832   0.54005
C          C       0.47076   0.02928   0.38127
H          H       0.43829   0.07086   0.41442
C          C       0.81106   0.86157   0.46883
H          H       0.79716   0.83174   0.47010
C          C       0.55444   0.92472   0.30202
H          H       0.58895   0.88440   0.26808
C          C       0.86405   0.84634   0.52437
C          C       0.88064   0.88756   0.52018
C          C       0.54069   0.27674   0.53826
C          C       0.59725   0.26376   0.55068
C          C       0.46106   0.98591   0.40246
C          C       0.50561   0.93055   0.36883
N          N       0.55855   0.14345   0.40005
N          N       0.66908   0.11631   0.43747
N          N       0.53317   0.06366   0.34745
N          N       0.72072   0.92814   0.36629
N          N       0.61806   0.95526   0.27837
N          N       0.74962   0.01017   0.40727
C          C       0.93468   0.88372   0.55401
C          C       0.98627   0.84055   0.49940
C          C       0.93375   0.93120   0.62275
C          C       0.03191   0.84669   0.49252
H          H       0.99213   0.80081   0.45781
C          C       0.97857   0.93834   0.61032
H          H       0.89674   0.96449   0.68690
C          C       0.02821   0.89703   0.53451
H          H       0.07054   0.81251   0.44039
H          H       0.97460   0.97684   0.66073
C          C       0.89966   0.79011   0.08538
C          C       0.94798   0.77556   0.18516
C          C       0.88783   0.74784   0.05232
C          C       0.98559   0.72207   0.22809
H          H       0.95591   0.80758   0.23246
C          C       0.92474   0.69391   0.10047
H          H       0.85000   0.75594   0.98076
C          C       0.97594   0.67941   0.17935
H          H       0.02232   0.71382   0.30807
H          H       0.91449   0.66215   0.06757
C          C       0.61561   0.30380   0.57985
C          C       0.58238   0.35456   0.66738
C          C       0.66670   0.29386   0.51123
C          C       0.59467   0.39604   0.65904
H          H       0.54551   0.36200   0.74226
C          C       0.68079   0.33434   0.51185
H          H       0.69555   0.25478   0.44484
C          C       0.64309   0.38769   0.57153
H          H       0.56569   0.43560   0.72212
H          H       0.71987   0.32562   0.44852
C          C       0.48825   0.32884   0.56859
C          C       0.47549   0.38122   0.50681
C          C       0.44436   0.32375   0.64135
C          C       0.42200   0.42413   0.50220
H          H       0.50699   0.38931   0.45308
C          C       0.39082   0.36562   0.63016
H          H       0.45175   0.28551   0.70710
C          C       0.37817   0.41635   0.55123
H          H       0.41392   0.46368   0.44565
H          H       0.35853   0.35857   0.68460
C          C       0.40497   0.00045   0.96111
C          C       0.35822   0.05116   0.92060
C          C       0.39650   0.96278   0.06346
C          C       0.30622   0.06150   0.97015
H          H       0.36159   0.08290   0.84197
C          C       0.34504   0.97181   0.10648
H          H       0.43174   0.92548   0.11437
C          C       0.29813   0.02118   0.05707
H          H       0.27080   0.10117   0.93325
H          H       0.34220   0.94029   0.18834
C          C       0.51043   0.87690   0.91456
C          C       0.47083   0.86113   0.89115
C          C       0.56171   0.83639   0.98424
C          C       0.48055   0.81000   0.94700
H          H       0.43084   0.88870   0.82982
C          C       0.57220   0.78489   0.03609
H          H       0.59495   0.84513   0.00485
C          C       0.53109   0.77099   0.02448
H          H       0.44791   0.80009   0.92925
H          H       0.61267   0.75601   0.09292
C          C       0.07347   0.90537   0.48661
H          H       0.11307   0.86807   0.46586
C          C       0.06781   0.95481   0.44532
H          H       0.02767   0.99174   0.46302
C          C       0.11086   0.96315   0.36951
C          C       0.10069   0.01644   0.33242
C          C       0.16299   0.91906   0.32604
C          C       0.14084   0.02560   0.25753
H          H       0.06038   0.05152   0.36534
C          C       0.20284   0.92813   0.25045
H          H       0.17284   0.87686   0.35152
C          C       0.19289   0.98139   0.21442
H          H       0.13138   0.06765   0.23106
H          H       0.24311   0.89307   0.21744
C          C       0.23873   0.98519   0.14088
H          H       0.27479   0.94478   0.11718
C          C       0.24448   0.02917   0.10560
H          H       0.20989   0.07104   0.11627
C          C       0.65098   0.43333   0.52282
C          C       0.60693   0.48334   0.49265
H          H       0.56644   0.48840   0.52139
C          C       0.60456   0.53177   0.41378
C          C       0.55219   0.57577   0.37153
C          C       0.65023   0.53753   0.37474
C          C       0.54546   0.62340   0.29176
H          H       0.51609   0.57221   0.40284
C          C       0.64343   0.58571   0.29768
H          H       0.69152   0.50431   0.40740
C          C       0.59109   0.62928   0.25254
H          H       0.50402   0.65669   0.26157
H          H       0.67945   0.58966   0.26892
C          C       0.58526   0.67910   0.17164
H          H       0.62201   0.68300   0.17463
C          C       0.53832   0.71975   0.09607
H          H       0.50198   0.71521   0.08819
C          C       0.32277   0.45873   0.50800
C          C       0.28074   0.44952   0.47653
H          H       0.28693   0.40826   0.49666
C          C       0.22711   0.49071   0.40972
C          C       0.18478   0.47845   0.39058
C          C       0.21626   0.54328   0.35726
C          C       0.13345   0.51708   0.32445
H          H       0.19224   0.43780   0.43161
C          C       0.16558   0.58133   0.28815
H          H       0.24788   0.55473   0.36851
C          C       0.12304   0.56935   0.27071
H          H       0.10136   0.50627   0.31218
H          H       0.15827   0.62189   0.24693
C          C       0.07151   0.61427   0.20445
H          H       0.07610   0.64784   0.14524
C          C       0.01973   0.62375   0.21793
H          H       0.00991   0.59267   0.26571
H          H       0.69249   0.42468   0.48914
H          H       0.31708   0.49964   0.48425
