data_crystal

_cell_length_a    34.40000
_cell_length_b    34.35000
_cell_length_c    7.46000
_cell_angle_alpha 90.00000
_cell_angle_beta  90.00000
_cell_angle_gamma 60.00000

_symmetry_space_group_name_Hall 'P 1'
_symmetry_space_group_name_H-M  'P 1'

loop_
_symmetry_equiv_pos_as_xyz
 'x,y,z'

loop_
_atom_site_label
_atom_site_type_symbol
_atom_site_fract_x
_atom_site_fract_y
_atom_site_fract_z
C          C       0.83901   0.62667   0.83153
C          C       0.78821   0.64245   0.81504
C          C       0.77197   0.60762   0.77964
C          C       0.80784   0.55730   0.76390
C          C       0.85874   0.54069   0.80002
C          C       0.87457   0.57522   0.82456
C          C       0.77113   0.71817   0.90312
C          C       0.82127   0.70297   0.91660
C          C       0.71228   0.58776   0.77701
C          C       0.93328   0.47986   0.88863
C          C       0.74823   0.53819   0.75338
C          C       0.94988   0.51378   0.89805
C          C       0.99830   0.49692   0.95131
H          H       0.00986   0.52398   0.94975
C          C       0.73702   0.76607   0.95324
H          H       0.69908   0.77564   0.94034
C          C       0.83465   0.73694   0.97810
H          H       0.87342   0.72421   0.99208
C          C       0.66377   0.59804   0.79850
H          H       0.63485   0.63607   0.79439
C          C       0.96524   0.43153   0.94436
H          H       0.95036   0.40716   0.94413
C          C       0.73558   0.50199   0.77274
H          H       0.76562   0.46508   0.75275
C          C       0.01270   0.41512   0.00225
C          C       0.03050   0.44922   0.00246
C          C       0.74943   0.79990   0.01361
C          C       0.80069   0.78446   0.02533
C          C       0.65197   0.56195   0.82762
C          C       0.69033   0.51135   0.83542
N          N       0.75493   0.68803   0.84933
N          N       0.85506   0.65654   0.87880
N          N       0.72476   0.62260   0.78170
N          N       0.88757   0.49373   0.83268
N          N       0.79585   0.52341   0.74167
N          N       0.92019   0.56158   0.86641
C          C       0.07920   0.44304   0.04536
C          C       0.12455   0.40533   0.98362
C          C       0.07891   0.48341   0.13017
C          C       0.16560   0.41005   0.98873
H          H       0.12854   0.37214   0.92067
C          C       0.11899   0.48920   0.12849
H          H       0.04595   0.51224   0.19648
C          C       0.16269   0.45366   0.04626
H          H       0.19975   0.38056   0.93142
H          H       0.11597   0.52212   0.19159
C          C       0.81894   0.81688   0.08318
C          C       0.78893   0.85810   0.19182
C          C       0.86465   0.81021   0.03154
C          C       0.79947   0.89451   0.22189
H          H       0.75585   0.86154   0.25170
C          C       0.87607   0.84642   0.06436
H          H       0.89082   0.77801   0.95188
C          C       0.84204   0.89102   0.14600
H          H       0.77386   0.92587   0.30679
H          H       0.91091   0.84126   0.01330
C          C       0.70505   0.84760   0.05266
C          C       0.69621   0.89389   0.99876
C          C       0.66506   0.84527   0.12672
C          C       0.64981   0.93394   0.00135
H          H       0.72530   0.89975   0.94831
C          C       0.61874   0.88470   0.12717
H          H       0.66970   0.81136   0.18510
C          C       0.60963   0.92959   0.05439
H          H       0.64447   0.96870   0.94837
H          H       0.58929   0.88013   0.18494
C          C       0.20117   0.46399   0.00174
H          H       0.23794   0.43306   0.98316
C          C       0.19096   0.50974   0.96173
H          H       0.15328   0.53940   0.97479
C          C       0.22494   0.52397   0.89333
C          C       0.20846   0.57294   0.84996
C          C       0.27423   0.49032   0.86428
C          C       0.23986   0.58763   0.78054
H          H       0.17011   0.59998   0.87105
C          C       0.30542   0.50515   0.79648
H          H       0.28882   0.45181   0.89555
C          C       0.28927   0.55402   0.75153
H          H       0.22508   0.62600   0.74501
H          H       0.34355   0.47734   0.78006
C          C       0.43284   0.59609   0.46165
H          H       0.46442   0.56058   0.42848
C          C       0.43918   0.63473   0.43870
H          H       0.41120   0.67168   0.47756
C          C       0.84664   0.93412   0.13520
C          C       0.80579   0.97803   0.14789
H          H       0.77184   0.97833   0.17855
C          C       0.79766   0.02621   0.11355
C          C       0.74931   0.06411   0.12739
C          C       0.83319   0.03760   0.05827
C          C       0.73626   0.11111   0.07899
H          H       0.72140   0.05607   0.17696
C          C       0.81999   0.08469   0.00809
H          H       0.87140   0.00932   0.04950
C          C       0.77126   0.12217   0.01188
H          H       0.69819   0.13939   0.09406
H          H       0.84844   0.09183   0.95850
C          C       0.72135   0.30851   0.70546
H          H       0.75414   0.31150   0.69474
C          C       0.67930   0.34594   0.63905
H          H       0.64521   0.34523   0.64717
C          C       0.56049   0.96871   0.02071
C          C       0.52383   0.95960   0.98934
H          H       0.53161   0.92197   0.99928
C          C       0.47484   0.99436   0.93180
C          C       0.44183   0.97813   0.89564
C          C       0.45908   0.04374   0.90425
C          C       0.39523   0.00976   0.83254
H          H       0.45298   0.93987   0.91703
C          C       0.41256   0.07520   0.84135
H          H       0.48342   0.05800   0.93267
C          C       0.37962   0.05901   0.80157
H          H       0.37095   0.99542   0.80368
H          H       0.40190   0.11343   0.82416
C          C       0.18768   0.20509   0.59667
H          H       0.18915   0.23736   0.55058
C          C       0.14301   0.21179   0.63176
H          H       0.13617   0.18226   0.66879
C          C       0.33061   0.09326   0.73318
C          C       0.29230   0.08331   0.74244
C          C       0.32054   0.13847   0.65938
C          C       0.24542   0.11785   0.69137
H          H       0.29845   0.04845   0.79735
C          C       0.27401   0.17281   0.60781
H          H       0.34925   0.14744   0.64038
C          C       0.23531   0.16379   0.62797
H          H       0.21622   0.10929   0.70473
H          H       0.26698   0.20797   0.55263
C          C       0.75705   0.17087   0.94161
C          C       0.70903   0.20334   0.88490
C          C       0.79140   0.18607   0.92365
C          C       0.69582   0.24867   0.81137
H          H       0.68104   0.19301   0.89550
C          C       0.77844   0.23101   0.84815
H          H       0.82877   0.16297   0.97232
C          C       0.73060   0.26313   0.78898
H          H       0.65809   0.27272   0.76810
H          H       0.80607   0.24176   0.83412
C          C       0.32367   0.56781   0.67588
C          C       0.36974   0.53123   0.61571
C          C       0.31327   0.61620   0.66104
C          C       0.40361   0.54239   0.54821
H          H       0.37979   0.49301   0.61846
C          C       0.34717   0.62762   0.59117
H          H       0.27810   0.64600   0.70831
C          C       0.39323   0.59069   0.53342
H          H       0.43920   0.51294   0.50315
H          H       0.33772   0.66571   0.58219
H          H       0.55499   0.00545   0.00534
H          H       0.88193   0.93026   0.09847
C          C       0.83524   0.62402   0.32807
C          C       0.78439   0.64063   0.31126
C          C       0.76760   0.60618   0.27859
C          C       0.80229   0.55521   0.27059
C          C       0.85371   0.53791   0.30277
C          C       0.87004   0.57229   0.32181
C          C       0.76837   0.71614   0.39740
C          C       0.81869   0.70003   0.41173
C          C       0.70579   0.58942   0.27699
C          C       0.92904   0.47713   0.38744
C          C       0.74019   0.53914   0.26517
C          C       0.94572   0.51098   0.39399
C          C       0.99406   0.49476   0.44747
H          H       0.00494   0.52229   0.44535
C          C       0.73512   0.76426   0.44812
H          H       0.69689   0.77493   0.43376
C          C       0.83293   0.73337   0.47323
H          H       0.87191   0.71965   0.48576
C          C       0.65647   0.60277   0.29683
H          H       0.62946   0.64142   0.29140
C          C       0.96153   0.42895   0.44414
H          H       0.94707   0.40423   0.44828
C          C       0.72432   0.50536   0.28716
H          H       0.75307   0.46761   0.27595
C          C       0.00904   0.41312   0.50045
C          C       0.02676   0.44731   0.49960
C          C       0.74846   0.79728   0.51161
C          C       0.79990   0.78112   0.52190
C          C       0.64142   0.56918   0.32783
C          C       0.67711   0.51771   0.33568
N          N       0.75153   0.68651   0.34389
N          N       0.85198   0.65339   0.37439
N          N       0.72015   0.62282   0.27707
N          N       0.88298   0.49099   0.33532
N          N       0.78837   0.52251   0.25667
N          N       0.91583   0.55860   0.36057
C          C       0.07592   0.44052   0.53984
C          C       0.12081   0.40035   0.48833
C          C       0.07788   0.48086   0.61295
C          C       0.16351   0.40202   0.49210
H          H       0.12356   0.36662   0.43871
C          C       0.11996   0.48336   0.61206
H          H       0.04541   0.51217   0.67089
C          C       0.16362   0.44464   0.54236
H          H       0.19708   0.37021   0.44315
H          H       0.11832   0.51642   0.66654
C          C       0.81985   0.81239   0.57709
C          C       0.79133   0.85493   0.68147
C          C       0.86656   0.80299   0.52523
C          C       0.80456   0.88961   0.70862
H          H       0.75712   0.86102   0.74058
C          C       0.88077   0.83720   0.55608
H          H       0.89174   0.76979   0.44817
C          C       0.84869   0.88289   0.63554
H          H       0.77972   0.92224   0.78914
H          H       0.91659   0.82935   0.50586
C          C       0.70455   0.84494   0.55549
C          C       0.69585   0.89140   0.50514
C          C       0.66458   0.84248   0.62929
C          C       0.64956   0.93152   0.50868
H          H       0.72489   0.89750   0.45701
C          C       0.61829   0.88197   0.62940
H          H       0.66922   0.80852   0.68720
C          C       0.60936   0.92693   0.55833
H          H       0.64439   0.96648   0.45942
H          H       0.58867   0.87733   0.68449
C          C       0.20619   0.44902   0.50539
H          H       0.24076   0.41519   0.48516
C          C       0.20259   0.49257   0.47126
H          H       0.16685   0.52526   0.48713
C          C       0.24010   0.50194   0.40328
C          C       0.22690   0.54997   0.35688
C          C       0.28870   0.46590   0.37510
C          C       0.26028   0.56155   0.28417
H          H       0.18927   0.57891   0.37752
C          C       0.32210   0.47764   0.30376
H          H       0.30092   0.42797   0.41056
C          C       0.30889   0.52562   0.25431
H          H       0.24755   0.59949   0.24830
H          H       0.35954   0.44813   0.28657
C          C       0.45269   0.56551   0.94013
H          H       0.48557   0.53081   0.90829
C          C       0.45487   0.60637   0.90804
H          H       0.42442   0.64239   0.94283
C          C       0.85799   0.92319   0.62498
C          C       0.82074   0.96929   0.64222
H          H       0.78520   0.97393   0.68013
C          C       0.81782   0.01536   0.60420
C          C       0.77089   0.05607   0.61262
C          C       0.85620   0.02300   0.55297
C          C       0.76225   0.10184   0.56687
H          H       0.74040   0.05127   0.65497
C          C       0.84741   0.06916   0.50736
H          H       0.89347   0.99252   0.54660
C          C       0.80020   0.10961   0.50969
H          H       0.72501   0.13207   0.57828
H          H       0.87819   0.07334   0.46364
C          C       0.75666   0.29744   0.23103
H          H       0.78850   0.30225   0.22522
C          C       0.71368   0.33288   0.16125
H          H       0.68153   0.32865   0.16932
C          C       0.56041   0.96608   0.52302
C          C       0.52373   0.95711   0.49074
H          H       0.53110   0.91962   0.50145
C          C       0.47494   0.99206   0.43260
C          C       0.44192   0.97589   0.39652
C          C       0.45932   0.04139   0.40552
C          C       0.39528   0.00756   0.33410
H          H       0.45320   0.93760   0.41802
C          C       0.41282   0.07287   0.34265
H          H       0.48364   0.05568   0.43472
C          C       0.37980   0.05678   0.30333
H          H       0.37095   0.99328   0.30583
H          H       0.40224   0.11107   0.32533
C          C       0.18826   0.20365   0.09540
H          H       0.19077   0.23473   0.04105
C          C       0.14306   0.21232   0.13525
H          H       0.13523   0.18400   0.18089
C          C       0.33074   0.09120   0.23597
C          C       0.29220   0.08161   0.24657
C          C       0.32091   0.13631   0.16208
C          C       0.24536   0.11633   0.19576
H          H       0.29828   0.04685   0.30241
C          C       0.27450   0.17069   0.10978
H          H       0.34980   0.14505   0.14347
C          C       0.23555   0.16204   0.13023
H          H       0.21601   0.10805   0.21098
H          H       0.26776   0.20572   0.05389
C          C       0.78917   0.15832   0.44935
C          C       0.74181   0.19262   0.39181
C          C       0.82439   0.17261   0.44196
C          C       0.73035   0.23799   0.32520
H          H       0.71290   0.18354   0.39263
C          C       0.81305   0.21809   0.37513
H          H       0.86140   0.14807   0.49200
C          C       0.76597   0.25159   0.31175
H          H       0.69314   0.26264   0.27818
H          H       0.84145   0.22798   0.37043
C          C       0.34443   0.53743   0.17357
C          C       0.39066   0.50035   0.11657
C          C       0.33405   0.58558   0.14855
C          C       0.42449   0.51096   0.04210
H          H       0.40083   0.46216   0.12844
C          C       0.36790   0.59636   0.07355
H          H       0.29870   0.61593   0.19070
C          C       0.41410   0.55909   0.01835
H          H       0.46008   0.48112   0.99887
H          H       0.35795   0.63445   0.05784
H          H       0.55499   0.00275   0.50660
H          H       0.89437   0.91547   0.58270
C          C       0.70647   0.37769   0.07696
C          C       0.74513   0.38644   0.05053
C          C       0.66018   0.41511   0.02356
C          C       0.73757   0.42981   0.97670
H          H       0.78216   0.35940   0.09167
C          C       0.65291   0.45861   0.94795
H          H       0.62859   0.41038   0.04247
C          C       0.69145   0.46752   0.91764
H          H       0.76959   0.43398   0.97173
H          H       0.61570   0.48574   0.91179
C          C       0.67729   0.38898   0.55840
C          C       0.71852   0.39416   0.54835
C          C       0.63397   0.42797   0.48893
C          C       0.71607   0.43579   0.47829
H          H       0.75387   0.36570   0.59949
C          C       0.63212   0.46942   0.41507
H          H       0.60053   0.42603   0.49085
C          C       0.67303   0.47554   0.40695
H          H       0.74987   0.43664   0.48592
H          H       0.59681   0.49685   0.36173
C          C       0.50133   0.60160   0.85325
C          C       0.53573   0.56038   0.75275
C          C       0.51588   0.63420   0.91833
C          C       0.58331   0.54975   0.73935
H          H       0.52560   0.53606   0.68160
C          C       0.56433   0.62211   0.91184
H          H       0.48965   0.66787   0.98971
C          C       0.59977   0.57784   0.83256
H          H       0.60859   0.51893   0.65204
H          H       0.57477   0.64657   0.97995
C          C       0.48767   0.62457   0.38380
C          C       0.51791   0.58211   0.28048
C          C       0.50799   0.65244   0.44708
C          C       0.56633   0.56682   0.25176
H          H       0.50359   0.56040   0.21718
C          C       0.55762   0.63463   0.43272
H          H       0.48534   0.68684   0.52205
C          C       0.58843   0.58992   0.34328
H          H       0.58732   0.53679   0.15355
H          H       0.57247   0.65537   0.50150
C          C       0.10472   0.26306   0.12348
C          C       0.11649   0.29791   0.18550
C          C       0.05834   0.27976   0.04664
C          C       0.08529   0.34661   0.15488
H          H       0.15042   0.28693   0.26249
C          C       0.02767   0.32888   0.01188
H          H       0.04717   0.25381   0.00154
C          C       0.04146   0.36352   0.05663
H          H       0.09519   0.37260   0.20764
H          H       0.99348   0.33930   0.93816
C          C       0.10349   0.26196   0.62235
C          C       0.11327   0.29766   0.69143
C          C       0.05803   0.27724   0.53925
C          C       0.08073   0.34613   0.66349
H          H       0.14631   0.28773   0.77320
C          C       0.02650   0.32614   0.50347
H          H       0.04880   0.25032   0.48798
C          C       0.03830   0.36174   0.55613
H          H       0.08846   0.37286   0.72594
H          H       0.99336   0.33566   0.42300
