data_crystal

_cell_length_a    7.26240
_cell_length_b    36.69770
_cell_length_c    63.56230
_cell_angle_alpha 90.00000
_cell_angle_beta  90.00000
_cell_angle_gamma 90.00000

_space_group_name_Hall 'P 1'
_space_group_name_H-M_alt  'P 1'

loop_
_symmetry_equiv_pos_as_xyz
'x,y,z' 

loop_
_atom_site_label
_atom_site_type_symbol
_atom_site_fract_x
_atom_site_fract_y
_atom_site_fract_z
C          C       0.76689   0.59922   0.87555 
C          C       0.64347   0.39643   0.23612 
C          C       0.76696   0.46756   0.94668 
C          C       0.64340   0.52809   0.16499 
C          C       0.76701   0.42671   0.84529 
C          C       0.64335   0.56894   0.26638 
C          C       0.76732   0.63225   0.86473 
C          C       0.64304   0.36340   0.24694 
C          C       0.76734   0.46726   0.96860 
C          C       0.64302   0.52839   0.14307 
C          C       0.76736   0.39398   0.83417 
C          C       0.64300   0.60167   0.27750 
C          C       0.76352   0.67163   0.81141 
C          C       0.64684   0.32402   0.30026 
C          C       0.76349   0.52755   0.01495 
C          C       0.64687   0.46810   0.09672 
C          C       0.76352   0.29431   0.84113 
C          C       0.64684   0.70135   0.27054 
C          C       0.73789   0.71102   0.80613 
C          C       0.67246   0.28463   0.30554 
C          C       0.73787   0.51578   0.03728 
C          C       0.67249   0.47987   0.07439 
C          C       0.73791   0.26669   0.82408 
C          C       0.67245   0.72896   0.28759 
C          C       0.70515   0.53063   0.90011 
C          C       0.70521   0.46502   0.21156 
C          C       0.70514   0.53138   0.87799 
C          C       0.70522   0.46427   0.23368 
C          C       0.70511   0.56659   0.86625 
C          C       0.70525   0.42906   0.24542 
C          C       0.70519   0.63363   0.84389 
C          C       0.70517   0.36202   0.26778 
C          C       0.63788   0.76639   0.82440 
C          C       0.77248   0.22926   0.28727 
C          C       0.63793   0.46069   0.05584 
O          O       0.58311   0.70618   0.85869 
O          O       0.82725   0.28947   0.25299 
O          O       0.58318   0.43934   0.00860 
O          O       0.82718   0.55631   0.10307 
O          O       0.58317   0.34793   0.80021 
O          O       0.82719   0.64773   0.31147 
H          H       0.82146   0.59897   0.89154 
H          H       0.58890   0.39668   0.22013 
H          H       0.82156   0.44370   0.93855 
H          H       0.58880   0.55195   0.17312 
H          H       0.82160   0.45082   0.83743 
H          H       0.58876   0.54483   0.27425 
H          H       0.81948   0.65677   0.87233 
H          H       0.59088   0.33888   0.23934 
H          H       0.81949   0.44359   0.97706 
H          H       0.59087   0.55206   0.13461 
H          H       0.81948   0.39314   0.81811 
H          H       0.59088   0.60252   0.29357 
H          H       0.70514   0.55636   0.90869 
H          H       0.70522   0.43929   0.20298 
H          H       0.58786   0.78040   0.83843 
H          H       0.82250   0.21525   0.27325 
H          H       0.58793   0.43264   0.05584 
N          N       0.70520   0.66744   0.83262 
N          N       0.70515   0.32821   0.27905 
C          C       0.76689   0.09922   0.37555 
C          C       0.64347   0.89643   0.73612 
C          C       0.76696   0.96756   0.44668 
C          C       0.64340   0.02809   0.66499 
C          C       0.76701   0.92671   0.34529 
C          C       0.64335   0.06894   0.76638 
C          C       0.76732   0.13225   0.36473 
C          C       0.64304   0.86340   0.74694 
C          C       0.76734   0.96726   0.46860 
C          C       0.64302   0.02839   0.64307 
C          C       0.76736   0.89398   0.33417 
C          C       0.64300   0.10167   0.77750 
C          C       0.76352   0.17163   0.31141 
C          C       0.64684   0.82402   0.80026 
C          C       0.76349   0.02755   0.51495 
C          C       0.64687   0.96810   0.59672 
C          C       0.76352   0.79431   0.34113 
C          C       0.64684   0.20135   0.77054 
C          C       0.73789   0.21102   0.30613 
C          C       0.67246   0.78463   0.80554 
C          C       0.73787   0.01578   0.53728 
C          C       0.67249   0.97987   0.57439 
C          C       0.73791   0.76669   0.32408 
C          C       0.67245   0.22896   0.78759 
C          C       0.70515   0.03063   0.40011 
C          C       0.70521   0.96502   0.71156 
C          C       0.70514   0.03138   0.37799 
C          C       0.70522   0.96427   0.73368 
C          C       0.70511   0.06659   0.36625 
C          C       0.70525   0.92906   0.74542 
C          C       0.70519   0.13363   0.34389 
C          C       0.70517   0.86202   0.76778 
C          C       0.63788   0.26639   0.32440 
C          C       0.77248   0.72926   0.78727 
C          C       0.63793   0.96069   0.55584 
O          O       0.58311   0.20618   0.35869 
O          O       0.82725   0.78947   0.75299 
O          O       0.58318   0.93934   0.50860 
O          O       0.82718   0.05631   0.60307 
O          O       0.58317   0.84793   0.30021 
O          O       0.82719   0.14773   0.81147 
H          H       0.82146   0.09897   0.39154 
H          H       0.58890   0.89668   0.72013 
H          H       0.82156   0.94370   0.43855 
H          H       0.58880   0.05195   0.67312 
H          H       0.82160   0.95082   0.33743 
H          H       0.58876   0.04483   0.77425 
H          H       0.81948   0.15677   0.37233 
H          H       0.59088   0.83888   0.73934 
H          H       0.81949   0.94359   0.47706 
H          H       0.59087   0.05206   0.63461 
H          H       0.81948   0.89314   0.31811 
H          H       0.59088   0.10252   0.79357 
H          H       0.70514   0.05636   0.40869 
H          H       0.70522   0.93929   0.70298 
H          H       0.58786   0.28040   0.33843 
H          H       0.82250   0.71525   0.77325 
H          H       0.58793   0.93264   0.55584 
N          N       0.70520   0.16744   0.33262 
N          N       0.70515   0.82821   0.77905 
C          C       0.64347   0.39643   0.87555 
C          C       0.76689   0.59922   0.23612 
C          C       0.64340   0.52809   0.94668 
C          C       0.76696   0.46756   0.16499 
C          C       0.64335   0.56894   0.84529 
C          C       0.76701   0.42671   0.26638 
C          C       0.64304   0.36340   0.86473 
C          C       0.76732   0.63225   0.24694 
C          C       0.64302   0.52839   0.96860 
C          C       0.76734   0.46726   0.14307 
C          C       0.64300   0.60167   0.83417 
C          C       0.76736   0.39398   0.27750 
C          C       0.64684   0.32402   0.81141 
C          C       0.76352   0.67163   0.30026 
C          C       0.64687   0.46810   0.01495 
C          C       0.76349   0.52755   0.09672 
C          C       0.64684   0.70135   0.84113 
C          C       0.76352   0.29431   0.27054 
C          C       0.67246   0.28463   0.80613 
C          C       0.73789   0.71102   0.30554 
C          C       0.67249   0.47987   0.03728 
C          C       0.73787   0.51578   0.07439 
C          C       0.67245   0.72896   0.82408 
C          C       0.73791   0.26669   0.28759 
C          C       0.70521   0.46502   0.90011 
C          C       0.70515   0.53063   0.21156 
C          C       0.70522   0.46427   0.87799 
C          C       0.70514   0.53138   0.23368 
C          C       0.70525   0.42906   0.86625 
C          C       0.70511   0.56659   0.24542 
C          C       0.70517   0.36202   0.84389 
C          C       0.70519   0.63363   0.26778 
C          C       0.77248   0.22926   0.82440 
C          C       0.63788   0.76639   0.28727 
C          C       0.77243   0.53497   0.05584 
O          O       0.82725   0.28947   0.85869 
O          O       0.58311   0.70618   0.25299 
O          O       0.82718   0.55631   0.00860 
O          O       0.58318   0.43934   0.10307 
O          O       0.82719   0.64773   0.80021 
O          O       0.58317   0.34793   0.31147 
H          H       0.58890   0.39668   0.89154 
H          H       0.82146   0.59897   0.22013 
H          H       0.58880   0.55195   0.93855 
H          H       0.82156   0.44370   0.17312 
H          H       0.58876   0.54483   0.83743 
H          H       0.82160   0.45082   0.27425 
H          H       0.59088   0.33888   0.87233 
H          H       0.81948   0.65677   0.23934 
H          H       0.59087   0.55206   0.97706 
H          H       0.81949   0.44359   0.13461 
H          H       0.59088   0.60252   0.81811 
H          H       0.81948   0.39314   0.29357 
H          H       0.70522   0.43929   0.90869 
H          H       0.70514   0.55636   0.20298 
H          H       0.82250   0.21525   0.83843 
H          H       0.58786   0.78040   0.27325 
H          H       0.82243   0.56301   0.05584 
N          N       0.70515   0.32821   0.83262 
N          N       0.70520   0.66744   0.27905 
C          C       0.64347   0.89643   0.37555 
C          C       0.76689   0.09922   0.73612 
C          C       0.64340   0.02809   0.44668 
C          C       0.76696   0.96756   0.66499 
C          C       0.64335   0.06894   0.34529 
C          C       0.76701   0.92671   0.76638 
C          C       0.64304   0.86340   0.36473 
C          C       0.76732   0.13225   0.74694 
C          C       0.64302   0.02839   0.46860 
C          C       0.76734   0.96726   0.64307 
C          C       0.64300   0.10167   0.33417 
C          C       0.76736   0.89398   0.77750 
C          C       0.64684   0.82402   0.31141 
C          C       0.76352   0.17163   0.80026 
C          C       0.64687   0.96810   0.51495 
C          C       0.76349   0.02755   0.59672 
C          C       0.64684   0.20135   0.34113 
C          C       0.76352   0.79431   0.77054 
C          C       0.67246   0.78463   0.30613 
C          C       0.73789   0.21102   0.80554 
C          C       0.67249   0.97987   0.53728 
C          C       0.73787   0.01578   0.57439 
C          C       0.67245   0.22896   0.32408 
C          C       0.73791   0.76669   0.78759 
C          C       0.70521   0.96502   0.40011 
C          C       0.70515   0.03063   0.71156 
C          C       0.70522   0.96427   0.37799 
C          C       0.70514   0.03138   0.73368 
C          C       0.70525   0.92906   0.36625 
C          C       0.70511   0.06659   0.74542 
C          C       0.70517   0.86202   0.34389 
C          C       0.70519   0.13363   0.76778 
C          C       0.77248   0.72926   0.32440 
C          C       0.63788   0.26639   0.78727 
C          C       0.77243   0.03497   0.55584 
O          O       0.82725   0.78947   0.35869 
O          O       0.58311   0.20618   0.75299 
O          O       0.82718   0.05631   0.50860 
O          O       0.58318   0.93934   0.60307 
O          O       0.82719   0.14773   0.30021 
O          O       0.58317   0.84793   0.81147 
H          H       0.58890   0.89668   0.39154 
H          H       0.82146   0.09897   0.72013 
H          H       0.58880   0.05195   0.43855 
H          H       0.82156   0.94370   0.67312 
H          H       0.58876   0.04483   0.33743 
H          H       0.82160   0.95082   0.77425 
H          H       0.59088   0.83888   0.37233 
H          H       0.81948   0.15677   0.73934 
H          H       0.59087   0.05206   0.47706 
H          H       0.81949   0.94359   0.63461 
H          H       0.59088   0.10252   0.31811 
H          H       0.81948   0.89314   0.79357 
H          H       0.70522   0.93929   0.40869 
H          H       0.70514   0.05636   0.70298 
H          H       0.82250   0.71525   0.33843 
H          H       0.58786   0.28040   0.77325 
H          H       0.82243   0.06301   0.55584 
N          N       0.70515   0.82821   0.33262 
N          N       0.70520   0.16744   0.77905 
C          C       0.29028   0.39895   0.12155 
C          C       0.41370   0.60175   0.76098 
C          C       0.29020   0.53062   0.05042 
C          C       0.41377   0.47009   0.83211 
C          C       0.29015   0.57147   0.15181 
C          C       0.41382   0.42923   0.73072 
C          C       0.28985   0.36593   0.13237 
C          C       0.41413   0.63477   0.75016 
C          C       0.28982   0.53092   0.02850 
C          C       0.41415   0.46978   0.85403 
C          C       0.28981   0.60419   0.16293 
C          C       0.41416   0.39651   0.71960 
C          C       0.29365   0.32655   0.18569 
C          C       0.41032   0.67416   0.69684 
C          C       0.29367   0.47063   0.98215 
C          C       0.41030   0.53008   0.90038 
C          C       0.29364   0.70387   0.15597 
C          C       0.41033   0.29683   0.72656 
C          C       0.31927   0.28716   0.19097 
C          C       0.38470   0.71355   0.69156 
C          C       0.31929   0.48240   0.95982 
C          C       0.38468   0.51830   0.92271 
C          C       0.31926   0.73149   0.17302 
C          C       0.38472   0.26921   0.70951 
C          C       0.35201   0.46755   0.09699 
C          C       0.35196   0.53316   0.78554 
C          C       0.35202   0.46680   0.11911 
C          C       0.35195   0.53390   0.76342 
C          C       0.35205   0.43159   0.13085 
C          C       0.35192   0.56912   0.75168 
C          C       0.35198   0.36454   0.15321 
C          C       0.35200   0.63616   0.72932 
C          C       0.41929   0.23179   0.17270 
C          C       0.28468   0.76891   0.70983 
C          C       0.41924   0.53749   0.94126 
O          O       0.47406   0.29199   0.13841 
O          O       0.22992   0.70871   0.74412 
O          O       0.47398   0.55883   0.98850 
O          O       0.22999   0.44187   0.89403 
O          O       0.47399   0.65025   0.19689 
O          O       0.22998   0.35045   0.68563 
H          H       0.23570   0.39920   0.10556 
H          H       0.46827   0.60150   0.77697 
H          H       0.23561   0.55447   0.05855 
H          H       0.46836   0.44623   0.82398 
H          H       0.23557   0.54735   0.15967 
H          H       0.46840   0.45335   0.72285 
H          H       0.23769   0.34141   0.12477 
H          H       0.46629   0.65930   0.75776 
H          H       0.23768   0.55458   0.02004 
H          H       0.46630   0.44612   0.86249 
H          H       0.23769   0.60504   0.17899 
H          H       0.46628   0.39566   0.70353 
H          H       0.35202   0.44182   0.08841 
H          H       0.35195   0.55888   0.79412 
H          H       0.46931   0.21778   0.15867 
H          H       0.23466   0.78293   0.72386 
H          H       0.46923   0.56553   0.94126 
N          N       0.35196   0.33073   0.16448 
N          N       0.35201   0.66997   0.71805 
C          C       0.29028   0.89895   0.62155 
C          C       0.41370   0.10175   0.26098 
C          C       0.29020   0.03062   0.55042 
C          C       0.41377   0.97009   0.33211 
C          C       0.29015   0.07147   0.65181 
C          C       0.41382   0.92923   0.23072 
C          C       0.28985   0.86593   0.63237 
C          C       0.41413   0.13477   0.25016 
C          C       0.28982   0.03092   0.52850 
C          C       0.41415   0.96978   0.35403 
C          C       0.28981   0.10419   0.66293 
C          C       0.41416   0.89651   0.21960 
C          C       0.29365   0.82655   0.68569 
C          C       0.41032   0.17416   0.19684 
C          C       0.29367   0.97063   0.48215 
C          C       0.41030   0.03008   0.40038 
C          C       0.29364   0.20387   0.65597 
C          C       0.41033   0.79683   0.22656 
C          C       0.31927   0.78716   0.69097 
C          C       0.38470   0.21355   0.19156 
C          C       0.31929   0.98240   0.45982 
C          C       0.38468   0.01830   0.42271 
C          C       0.31926   0.23149   0.67302 
C          C       0.38472   0.76921   0.20951 
C          C       0.35201   0.96755   0.59699 
C          C       0.35196   0.03316   0.28554 
C          C       0.35202   0.96680   0.61911 
C          C       0.35195   0.03390   0.26342 
C          C       0.35205   0.93159   0.63085 
C          C       0.35192   0.06912   0.25168 
C          C       0.35198   0.86454   0.65321 
C          C       0.35200   0.13616   0.22932 
C          C       0.41929   0.73179   0.67270 
C          C       0.28468   0.26891   0.20983 
C          C       0.41924   0.03749   0.44126 
O          O       0.47406   0.79199   0.63841 
O          O       0.22992   0.20871   0.24412 
O          O       0.47398   0.05883   0.48850 
O          O       0.22999   0.94187   0.39403 
O          O       0.47399   0.15025   0.69689 
O          O       0.22998   0.85045   0.18563 
H          H       0.23570   0.89920   0.60556 
H          H       0.46827   0.10150   0.27697 
H          H       0.23561   0.05447   0.55855 
H          H       0.46836   0.94623   0.32398 
H          H       0.23557   0.04735   0.65967 
H          H       0.46840   0.95335   0.22285 
H          H       0.23769   0.84141   0.62477 
H          H       0.46629   0.15930   0.25776 
H          H       0.23768   0.05458   0.52004 
H          H       0.46630   0.94612   0.36249 
H          H       0.23769   0.10504   0.67899 
H          H       0.46628   0.89566   0.20353 
H          H       0.35202   0.94182   0.58841 
H          H       0.35195   0.05888   0.29412 
H          H       0.46931   0.71778   0.65867 
H          H       0.23466   0.28293   0.22386 
H          H       0.46923   0.06553   0.44126 
N          N       0.35196   0.83073   0.66448 
N          N       0.35201   0.16997   0.21805 
C          C       0.41370   0.60175   0.12155 
C          C       0.29028   0.39895   0.76098 
C          C       0.41377   0.47009   0.05042 
C          C       0.29020   0.53062   0.83211 
C          C       0.41382   0.42923   0.15181 
C          C       0.29015   0.57147   0.73072 
C          C       0.41413   0.63477   0.13237 
C          C       0.28985   0.36593   0.75016 
C          C       0.41415   0.46978   0.02850 
C          C       0.28982   0.53092   0.85403 
C          C       0.41416   0.39651   0.16293 
C          C       0.28981   0.60419   0.71960 
C          C       0.41032   0.67416   0.18569 
C          C       0.29365   0.32655   0.69684 
C          C       0.41030   0.53008   0.98215 
C          C       0.29367   0.47063   0.90038 
C          C       0.41033   0.29683   0.15597 
C          C       0.29364   0.70387   0.72656 
C          C       0.38470   0.71355   0.19097 
C          C       0.31927   0.28716   0.69156 
C          C       0.38468   0.51830   0.95982 
C          C       0.31929   0.48240   0.92271 
C          C       0.38472   0.26921   0.17302 
C          C       0.31926   0.73149   0.70951 
C          C       0.35196   0.53316   0.09699 
C          C       0.35201   0.46755   0.78554 
C          C       0.35195   0.53390   0.11911 
C          C       0.35202   0.46680   0.76342 
C          C       0.35192   0.56912   0.13085 
C          C       0.35205   0.43159   0.75168 
C          C       0.35200   0.63616   0.15321 
C          C       0.35198   0.36454   0.72932 
C          C       0.28468   0.76891   0.17270 
C          C       0.41929   0.23179   0.70983 
C          C       0.28473   0.46321   0.94126 
O          O       0.22992   0.70871   0.13841 
O          O       0.47406   0.29199   0.74412 
O          O       0.22999   0.44187   0.98850 
O          O       0.47398   0.55883   0.89403 
O          O       0.22998   0.35045   0.19689 
O          O       0.47399   0.65025   0.68563 
H          H       0.46827   0.60150   0.10556 
H          H       0.23570   0.39920   0.77697 
H          H       0.46836   0.44623   0.05855 
H          H       0.23561   0.55447   0.82398 
H          H       0.46840   0.45335   0.15967 
H          H       0.23557   0.54735   0.72285 
H          H       0.46629   0.65930   0.12477 
H          H       0.23769   0.34141   0.75776 
H          H       0.46630   0.44612   0.02004 
H          H       0.23768   0.55458   0.86249 
H          H       0.46628   0.39566   0.17899 
H          H       0.23769   0.60504   0.70353 
H          H       0.35195   0.55888   0.08841 
H          H       0.35202   0.44182   0.79412 
H          H       0.23466   0.78293   0.15867 
H          H       0.46931   0.21778   0.72386 
H          H       0.23474   0.43517   0.94126 
N          N       0.35201   0.66997   0.16448 
N          N       0.35196   0.33073   0.71805 
C          C       0.41370   0.10175   0.62155 
C          C       0.29028   0.89895   0.26098 
C          C       0.41377   0.97009   0.55042 
C          C       0.29020   0.03062   0.33211 
C          C       0.41382   0.92923   0.65181 
C          C       0.29015   0.07147   0.23072 
C          C       0.41413   0.13477   0.63237 
C          C       0.28985   0.86593   0.25016 
C          C       0.41415   0.96978   0.52850 
C          C       0.28982   0.03092   0.35403 
C          C       0.41416   0.89651   0.66293 
C          C       0.28981   0.10419   0.21960 
C          C       0.41032   0.17416   0.68569 
C          C       0.29365   0.82655   0.19684 
C          C       0.41030   0.03008   0.48215 
C          C       0.29367   0.97063   0.40038 
C          C       0.41033   0.79683   0.65597 
C          C       0.29364   0.20387   0.22656 
C          C       0.38470   0.21355   0.69097 
C          C       0.31927   0.78716   0.19156 
C          C       0.38468   0.01830   0.45982 
C          C       0.31929   0.98240   0.42271 
C          C       0.38472   0.76921   0.67302 
C          C       0.31926   0.23149   0.20951 
C          C       0.35196   0.03316   0.59699 
C          C       0.35201   0.96755   0.28554 
C          C       0.35195   0.03390   0.61911 
C          C       0.35202   0.96680   0.26342 
C          C       0.35192   0.06912   0.63085 
C          C       0.35205   0.93159   0.25168 
C          C       0.35200   0.13616   0.65321 
C          C       0.35198   0.86454   0.22932 
C          C       0.28468   0.26891   0.67270 
C          C       0.41929   0.73179   0.20983 
C          C       0.28473   0.96321   0.44126 
O          O       0.22992   0.20871   0.63841 
O          O       0.47406   0.79199   0.24412 
O          O       0.22999   0.94187   0.48850 
O          O       0.47398   0.05883   0.39403 
O          O       0.22998   0.85045   0.69689 
O          O       0.47399   0.15025   0.18563 
H          H       0.46827   0.10150   0.60556 
H          H       0.23570   0.89920   0.27697 
H          H       0.46836   0.94623   0.55855 
H          H       0.23561   0.05447   0.32398 
H          H       0.46840   0.95335   0.65967 
H          H       0.23557   0.04735   0.22285 
H          H       0.46629   0.15930   0.62477 
H          H       0.23769   0.84141   0.25776 
H          H       0.46630   0.94612   0.52004 
H          H       0.23768   0.05458   0.36249 
H          H       0.46628   0.89566   0.67899 
H          H       0.23769   0.10504   0.20353 
H          H       0.35195   0.05888   0.58841 
H          H       0.35202   0.94182   0.29412 
H          H       0.23466   0.28293   0.65867 
H          H       0.46931   0.71778   0.22386 
H          H       0.23474   0.93517   0.44126 
N          N       0.35201   0.16997   0.66448 
N          N       0.35196   0.83073   0.21805 
C          C       0.70518   0.49783   0.86731 
C          C       0.70518   0.49783   0.24437 
C          C       0.70518   0.49783   0.91154 
C          C       0.70518   0.49783   0.20013 
C          C       0.70518   0.49783   0.93501 
C          C       0.70518   0.49783   0.17666 
C          C       0.70518   0.49783   0.97972 
C          C       0.70518   0.49783   0.13195 
H          H       0.70518   0.49783   0.85015 
H          H       0.70518   0.49783   0.26152 
N          N       0.70518   0.49783   0.00226 
N          N       0.70518   0.49783   0.10941 
C          C       0.70518   0.99783   0.36731 
C          C       0.70518   0.99783   0.74437 
C          C       0.70518   0.99783   0.41154 
C          C       0.70518   0.99783   0.70013 
C          C       0.70518   0.99783   0.43501 
C          C       0.70518   0.99783   0.67666 
C          C       0.70518   0.99783   0.47972 
C          C       0.70518   0.99783   0.63195 
H          H       0.70518   0.99783   0.35015 
H          H       0.70518   0.99783   0.76152 
N          N       0.70518   0.99783   0.50226 
N          N       0.70518   0.99783   0.60941 
C          C       0.35199   0.50035   0.12979 
C          C       0.35199   0.50035   0.75273 
C          C       0.35199   0.50035   0.08556 
C          C       0.35199   0.50035   0.79697 
C          C       0.35199   0.50035   0.06209 
C          C       0.35199   0.50035   0.82044 
C          C       0.35199   0.50035   0.01738 
C          C       0.35199   0.50035   0.86515 
H          H       0.35199   0.50035   0.14695 
H          H       0.35199   0.50035   0.73558 
N          N       0.35199   0.50035   0.99484 
N          N       0.35199   0.50035   0.88769 
C          C       0.35199   0.00035   0.62979 
C          C       0.35199   0.00035   0.25273 
C          C       0.35199   0.00035   0.58556 
C          C       0.35199   0.00035   0.29697 
C          C       0.35199   0.00035   0.56209 
C          C       0.35199   0.00035   0.32044 
C          C       0.35199   0.00035   0.51738 
C          C       0.35199   0.00035   0.36515 
H          H       0.35199   0.00035   0.64695 
H          H       0.35199   0.00035   0.23558 
N          N       0.35199   0.00035   0.49484 
N          N       0.35199   0.00035   0.38760 
