data_crystal

_cell_length_a    8.03520
_cell_length_b    31.65950
_cell_length_c    54.83590
_cell_angle_alpha 90.00000
_cell_angle_beta  90.00000
_cell_angle_gamma 90.00000

_space_group_name_Hall 'P 1'
_space_group_name_H-M_alt  'P 1'

loop_
_symmetry_equiv_pos_as_xyz
'x,y,z' 

loop_
_atom_site_label
_atom_site_type_symbol
_atom_site_fract_x
_atom_site_fract_y
_atom_site_fract_z
C          C       0.61293   0.53275   0.06632 
C          C       0.23711   0.53264   0.18753 
C          C       0.61293   0.54332   0.14228 
C          C       0.23711   0.54321   0.26349 
C          C       0.61293   0.42409   0.10959 
C          C       0.23711   0.42398   0.23079 
C          C       0.61356   0.53303   0.04087 
C          C       0.23774   0.53292   0.16208 
C          C       0.61356   0.58135   0.15515 
C          C       0.23774   0.58124   0.27635 
C          C       0.61356   0.38578   0.12217 
C          C       0.23774   0.38567   0.24338 
C          C       0.62288   0.46704   0.98694 
C          C       0.24706   0.46693   0.10815 
C          C       0.62288   0.69525   0.14912 
C          C       0.24706   0.69514   0.27032 
C          C       0.62288   0.33788   0.18213 
C          C       0.24706   0.33777   0.30334 
C          C       0.65071   0.48007   0.96096 
C          C       0.27489   0.47996   0.08217 
C          C       0.65071   0.72770   0.16862 
C          C       0.27489   0.72759   0.28983 
C          C       0.65071   0.29240   0.18861 
C          C       0.27489   0.29228   0.30981 
C          C       0.68791   0.53937   0.11917 
C          C       0.31209   0.53926   0.24038 
C          C       0.68791   0.61738   0.14517 
C          C       0.31209   0.61727   0.26638 
C          C       0.76461   0.54135   0.93940 
C          C       0.76461   0.72941   0.21004 
C          C       0.38879   0.72930   0.33125 
O          O       0.82141   0.56497   0.99442 
O          O       0.44558   0.56486   0.11563 
O          O       0.82141   0.63506   0.19434 
O          O       0.44558   0.63495   0.31555 
O          O       0.82141   0.30013   0.12943 
O          O       0.44558   0.30002   0.25063 
H          H       0.55203   0.55877   0.07574 
H          H       0.17621   0.55866   0.19694 
H          H       0.55203   0.51619   0.15058 
H          H       0.17621   0.51608   0.27179 
H          H       0.55203   0.42521   0.09187 
H          H       0.17621   0.42510   0.21308 
H          H       0.55158   0.55865   0.03115 
H          H       0.17576   0.55854   0.15236 
H          H       0.55158   0.58313   0.17282 
H          H       0.17576   0.58302   0.29402 
H          H       0.55158   0.35839   0.11422 
H          H       0.17576   0.35828   0.23543 
H          H       0.82168   0.57264   0.93940 
H          H       0.82168   0.71377   0.22569 
H          H       0.44586   0.71365   0.34689 
N          N       0.68791   0.65672   0.15828 
N          N       0.31209   0.65661   0.27949 
C          C       0.61293   0.03275   0.56632 
C          C       0.23711   0.03264   0.68753 
C          C       0.61293   0.04332   0.64228 
C          C       0.23711   0.04321   0.76349 
C          C       0.61293   0.92409   0.60959 
C          C       0.23711   0.92398   0.73079 
C          C       0.61356   0.03303   0.54087 
C          C       0.23774   0.03292   0.66208 
C          C       0.61356   0.08135   0.65515 
C          C       0.23774   0.08124   0.77635 
C          C       0.61356   0.88578   0.62217 
C          C       0.23774   0.88567   0.74338 
C          C       0.62288   0.96704   0.48694 
C          C       0.24706   0.96693   0.60815 
C          C       0.62288   0.19525   0.64912 
C          C       0.24706   0.19514   0.77032 
C          C       0.62288   0.83788   0.68213 
C          C       0.24706   0.83777   0.80334 
C          C       0.65071   0.98007   0.46096 
C          C       0.27489   0.97996   0.58217 
C          C       0.65071   0.22770   0.66862 
C          C       0.27489   0.22759   0.78983 
C          C       0.65071   0.79240   0.68861 
C          C       0.27489   0.79228   0.80981 
C          C       0.68791   0.03937   0.61917 
C          C       0.31209   0.03926   0.74038 
C          C       0.68791   0.11738   0.64517 
C          C       0.31209   0.11727   0.76638 
C          C       0.76461   0.04135   0.43940 
C          C       0.76461   0.22941   0.71004 
C          C       0.38879   0.22930   0.83125 
O          O       0.82141   0.06497   0.49442 
O          O       0.44558   0.06486   0.61563 
O          O       0.82141   0.13506   0.69434 
O          O       0.44558   0.13495   0.81555 
O          O       0.82141   0.80013   0.62943 
O          O       0.44558   0.80002   0.75063 
H          H       0.55203   0.05877   0.57574 
H          H       0.17621   0.05866   0.69694 
H          H       0.55203   0.01619   0.65058 
H          H       0.17621   0.01608   0.77179 
H          H       0.55203   0.92521   0.59187 
H          H       0.17621   0.92510   0.71308 
H          H       0.55158   0.05865   0.53115 
H          H       0.17576   0.05854   0.65236 
H          H       0.55158   0.08313   0.67282 
H          H       0.17576   0.08302   0.79402 
H          H       0.55158   0.85839   0.61422 
H          H       0.17576   0.85828   0.73543 
H          H       0.82168   0.07264   0.43940 
H          H       0.82168   0.21377   0.72569 
H          H       0.44586   0.21365   0.84689 
N          N       0.68791   0.15672   0.65828 
N          N       0.31209   0.15661   0.77949 
C          C       0.76289   0.46736   0.06632 
C          C       0.38707   0.46725   0.18753 
C          C       0.76289   0.45679   0.14228 
C          C       0.38707   0.45668   0.26349 
C          C       0.76289   0.57602   0.10959 
C          C       0.38707   0.57591   0.23079 
C          C       0.76226   0.46708   0.04087 
C          C       0.38644   0.46697   0.16208 
C          C       0.76226   0.41876   0.15515 
C          C       0.38644   0.41865   0.27635 
C          C       0.76226   0.61433   0.12217 
C          C       0.38644   0.61422   0.24338 
C          C       0.75294   0.53307   0.98694 
C          C       0.37712   0.53296   0.10815 
C          C       0.75294   0.30486   0.14912 
C          C       0.37712   0.30475   0.27032 
C          C       0.75294   0.66223   0.18213 
C          C       0.37712   0.66212   0.30334 
C          C       0.72511   0.52004   0.96096 
C          C       0.34929   0.51993   0.08217 
C          C       0.72511   0.27241   0.16862 
C          C       0.34929   0.27230   0.28983 
C          C       0.72511   0.70772   0.18861 
C          C       0.34929   0.70760   0.30981 
C          C       0.68791   0.46074   0.11917 
C          C       0.31209   0.46063   0.24038 
C          C       0.68791   0.38273   0.14517 
C          C       0.31209   0.38262   0.26638 
C          C       0.61121   0.45876   0.93940 
C          C       0.61121   0.27070   0.21004 
C          C       0.23539   0.27059   0.33125 
O          O       0.55442   0.43514   0.99442 
O          O       0.17859   0.43503   0.11563 
O          O       0.55442   0.36505   0.19434 
O          O       0.17859   0.36494   0.31555 
O          O       0.55442   0.69998   0.12943 
O          O       0.17859   0.69987   0.25063 
H          H       0.82379   0.44134   0.07574 
H          H       0.44797   0.44123   0.19694 
H          H       0.82379   0.48392   0.15058 
H          H       0.44797   0.48381   0.27179 
H          H       0.82379   0.57490   0.09187 
H          H       0.44797   0.57479   0.21308 
H          H       0.82424   0.44146   0.03115 
H          H       0.44842   0.44135   0.15236 
H          H       0.82424   0.41698   0.17282 
H          H       0.44842   0.41687   0.29402 
H          H       0.82424   0.64172   0.11422 
H          H       0.44842   0.64161   0.23543 
H          H       0.55414   0.42748   0.93940 
H          H       0.55414   0.28635   0.22569 
H          H       0.17832   0.28623   0.34689 
N          N       0.68791   0.34339   0.15828 
N          N       0.31209   0.34328   0.27949 
C          C       0.76289   0.96736   0.56632 
C          C       0.38707   0.96725   0.68753 
C          C       0.76289   0.95679   0.64228 
C          C       0.38707   0.95668   0.76349 
C          C       0.76289   0.07602   0.60959 
C          C       0.38707   0.07591   0.73079 
C          C       0.76226   0.96708   0.54087 
C          C       0.38644   0.96697   0.66208 
C          C       0.76226   0.91876   0.65515 
C          C       0.38644   0.91865   0.77635 
C          C       0.76226   0.11433   0.62217 
C          C       0.38644   0.11422   0.74338 
C          C       0.75294   0.03307   0.48694 
C          C       0.37712   0.03296   0.60815 
C          C       0.75294   0.80486   0.64912 
C          C       0.37712   0.80475   0.77032 
C          C       0.75294   0.16223   0.68213 
C          C       0.37712   0.16212   0.80334 
C          C       0.72511   0.02004   0.46096 
C          C       0.34929   0.01993   0.58217 
C          C       0.72511   0.77241   0.66862 
C          C       0.34929   0.77230   0.78983 
C          C       0.72511   0.20772   0.68861 
C          C       0.34929   0.20760   0.80981 
C          C       0.68791   0.96074   0.61917 
C          C       0.31209   0.96063   0.74038 
C          C       0.68791   0.88273   0.64517 
C          C       0.31209   0.88262   0.76638 
C          C       0.61121   0.95876   0.43940 
C          C       0.61121   0.77070   0.71004 
C          C       0.23539   0.77059   0.83125 
O          O       0.55442   0.93514   0.49442 
O          O       0.17859   0.93503   0.61563 
O          O       0.55442   0.86505   0.69434 
O          O       0.17859   0.86494   0.81555 
O          O       0.55442   0.19998   0.62943 
O          O       0.17859   0.19987   0.75063 
H          H       0.82379   0.94134   0.57574 
H          H       0.44797   0.94123   0.69694 
H          H       0.82379   0.98392   0.65058 
H          H       0.44797   0.98381   0.77179 
H          H       0.82379   0.07490   0.59187 
H          H       0.44797   0.07479   0.71308 
H          H       0.82424   0.94146   0.53115 
H          H       0.44842   0.94135   0.65236 
H          H       0.82424   0.91698   0.67282 
H          H       0.44842   0.91687   0.79402 
H          H       0.82424   0.14172   0.61422 
H          H       0.44842   0.14161   0.73543 
H          H       0.55414   0.92748   0.43940 
H          H       0.55414   0.78635   0.72569 
H          H       0.17832   0.78623   0.84689 
N          N       0.68791   0.84339   0.65828 
N          N       0.31209   0.84328   0.77949 
C          C       0.38707   0.46725   0.93368 
C          C       0.76289   0.46736   0.81247 
C          C       0.38707   0.45668   0.85772 
C          C       0.76289   0.45679   0.73651 
C          C       0.38707   0.57591   0.89041 
C          C       0.76289   0.57602   0.76921 
C          C       0.38644   0.46697   0.95913 
C          C       0.76226   0.46708   0.83792 
C          C       0.38644   0.41865   0.84485 
C          C       0.76226   0.41876   0.72365 
C          C       0.38644   0.61422   0.87783 
C          C       0.76226   0.61433   0.75662 
C          C       0.37712   0.53296   0.01306 
C          C       0.75294   0.53307   0.89185 
C          C       0.37712   0.30475   0.85088 
C          C       0.75294   0.30486   0.72968 
C          C       0.37712   0.66212   0.81787 
C          C       0.75294   0.66223   0.69666 
C          C       0.34929   0.51993   0.03904 
C          C       0.72511   0.52004   0.91783 
C          C       0.34929   0.27230   0.83138 
C          C       0.72511   0.27241   0.71017 
C          C       0.34929   0.70760   0.81139 
C          C       0.72511   0.70772   0.69019 
C          C       0.31209   0.46063   0.88083 
C          C       0.68791   0.46074   0.75962 
C          C       0.31209   0.38262   0.85483 
C          C       0.68791   0.38273   0.73362 
C          C       0.23539   0.45865   0.06060 
C          C       0.23539   0.27059   0.78996 
C          C       0.61121   0.27070   0.66875 
O          O       0.17859   0.43503   0.00558 
O          O       0.55442   0.43514   0.88437 
O          O       0.17859   0.36494   0.80566 
O          O       0.55442   0.36505   0.68445 
O          O       0.17859   0.69987   0.87057 
O          O       0.55442   0.69998   0.74937 
H          H       0.44797   0.44123   0.92426 
H          H       0.82379   0.44134   0.80306 
H          H       0.44797   0.48381   0.84942 
H          H       0.82379   0.48392   0.72821 
H          H       0.44797   0.57479   0.90813 
H          H       0.82379   0.57490   0.78692 
H          H       0.44842   0.44135   0.96885 
H          H       0.82424   0.44146   0.84764 
H          H       0.44842   0.41687   0.82718 
H          H       0.82424   0.41698   0.70598 
H          H       0.44842   0.64161   0.88578 
H          H       0.82424   0.64172   0.76457 
H          H       0.17832   0.42736   0.06060 
H          H       0.17832   0.28623   0.77431 
H          H       0.55414   0.28635   0.65311 
N          N       0.31209   0.34328   0.84172 
N          N       0.68791   0.34339   0.72051 
C          C       0.38707   0.96725   0.43368 
C          C       0.76289   0.96736   0.31247 
C          C       0.38707   0.95668   0.35772 
C          C       0.76289   0.95679   0.23651 
C          C       0.38707   0.07591   0.39041 
C          C       0.76289   0.07602   0.26921 
C          C       0.38644   0.96697   0.45913 
C          C       0.76226   0.96708   0.33792 
C          C       0.38644   0.91865   0.34485 
C          C       0.76226   0.91876   0.22365 
C          C       0.38644   0.11422   0.37783 
C          C       0.76226   0.11433   0.25662 
C          C       0.37712   0.03296   0.51306 
C          C       0.75294   0.03307   0.39185 
C          C       0.37712   0.80475   0.35088 
C          C       0.75294   0.80486   0.22968 
C          C       0.37712   0.16212   0.31787 
C          C       0.75294   0.16223   0.19666 
C          C       0.34929   0.01993   0.53904 
C          C       0.72511   0.02004   0.41783 
C          C       0.34929   0.77230   0.33138 
C          C       0.72511   0.77241   0.21017 
C          C       0.34929   0.20760   0.31139 
C          C       0.72511   0.20772   0.19019 
C          C       0.31209   0.96063   0.38083 
C          C       0.68791   0.96074   0.25962 
C          C       0.31209   0.88262   0.35483 
C          C       0.68791   0.88273   0.23362 
C          C       0.23539   0.95865   0.56060 
C          C       0.23539   0.77059   0.28996 
C          C       0.61121   0.77070   0.16875 
O          O       0.17859   0.93503   0.50558 
O          O       0.55442   0.93514   0.38437 
O          O       0.17859   0.86494   0.30566 
O          O       0.55442   0.86505   0.18445 
O          O       0.17859   0.19987   0.37057 
O          O       0.55442   0.19998   0.24937 
H          H       0.44797   0.94123   0.42426 
H          H       0.82379   0.94134   0.30306 
H          H       0.44797   0.98381   0.34942 
H          H       0.82379   0.98392   0.22821 
H          H       0.44797   0.07479   0.40813 
H          H       0.82379   0.07490   0.28692 
H          H       0.44842   0.94135   0.46885 
H          H       0.82424   0.94146   0.34764 
H          H       0.44842   0.91687   0.32718 
H          H       0.82424   0.91698   0.20598 
H          H       0.44842   0.14161   0.38578 
H          H       0.82424   0.14172   0.26457 
H          H       0.17832   0.92736   0.56060 
H          H       0.17832   0.78623   0.27431 
H          H       0.55414   0.78635   0.15311 
N          N       0.31209   0.84328   0.34172 
N          N       0.68791   0.84339   0.22051 
C          C       0.23711   0.53264   0.93368 
C          C       0.61293   0.53275   0.81247 
C          C       0.23711   0.54321   0.85772 
C          C       0.61293   0.54332   0.73651 
C          C       0.23711   0.42398   0.89041 
C          C       0.61293   0.42409   0.76921 
C          C       0.23774   0.53292   0.95913 
C          C       0.61356   0.53303   0.83792 
C          C       0.23774   0.58124   0.84485 
C          C       0.61356   0.58135   0.72365 
C          C       0.23774   0.38567   0.87783 
C          C       0.61356   0.38578   0.75662 
C          C       0.24706   0.46693   0.01306 
C          C       0.62288   0.46704   0.89185 
C          C       0.24706   0.69514   0.85088 
C          C       0.62288   0.69525   0.72968 
C          C       0.24706   0.33777   0.81787 
C          C       0.62288   0.33788   0.69666 
C          C       0.27489   0.47996   0.03904 
C          C       0.65071   0.48007   0.91783 
C          C       0.27489   0.72759   0.83138 
C          C       0.65071   0.72770   0.71017 
C          C       0.27489   0.29228   0.81139 
C          C       0.65071   0.29240   0.69019 
C          C       0.31209   0.53926   0.88083 
C          C       0.68791   0.53937   0.75962 
C          C       0.31209   0.61727   0.85483 
C          C       0.68791   0.61738   0.73362 
C          C       0.38879   0.54124   0.06060 
C          C       0.38879   0.72930   0.78996 
C          C       0.76461   0.72941   0.66875 
O          O       0.44558   0.56486   0.00558 
O          O       0.82141   0.56497   0.88437 
O          O       0.44558   0.63495   0.80566 
O          O       0.82141   0.63506   0.68445 
O          O       0.44558   0.30002   0.87057 
O          O       0.82141   0.30013   0.74937 
H          H       0.17621   0.55866   0.92426 
H          H       0.55203   0.55877   0.80306 
H          H       0.17621   0.51608   0.84942 
H          H       0.55203   0.51619   0.72821 
H          H       0.17621   0.42510   0.90813 
H          H       0.55203   0.42521   0.78692 
H          H       0.17576   0.55854   0.96885 
H          H       0.55158   0.55865   0.84764 
H          H       0.17576   0.58302   0.82718 
H          H       0.55158   0.58313   0.70598 
H          H       0.17576   0.35828   0.88578 
H          H       0.55158   0.35839   0.76457 
H          H       0.44586   0.57252   0.06060 
H          H       0.44586   0.71365   0.77431 
H          H       0.82168   0.71377   0.65311 
N          N       0.31209   0.65661   0.84172 
N          N       0.68791   0.65672   0.72051 
C          C       0.23711   0.03264   0.43368 
C          C       0.61293   0.03275   0.31247 
C          C       0.23711   0.04321   0.35772 
C          C       0.61293   0.04332   0.23651 
C          C       0.23711   0.92398   0.39041 
C          C       0.61293   0.92409   0.26921 
C          C       0.23774   0.03292   0.45913 
C          C       0.61356   0.03303   0.33792 
C          C       0.23774   0.08124   0.34485 
C          C       0.61356   0.08135   0.22365 
C          C       0.23774   0.88567   0.37783 
C          C       0.61356   0.88578   0.25662 
C          C       0.24706   0.96693   0.51306 
C          C       0.62288   0.96704   0.39185 
C          C       0.24706   0.19514   0.35088 
C          C       0.62288   0.19525   0.22968 
C          C       0.24706   0.83777   0.31787 
C          C       0.62288   0.83788   0.19666 
C          C       0.27489   0.97996   0.53904 
C          C       0.65071   0.98007   0.41783 
C          C       0.27489   0.22759   0.33138 
C          C       0.65071   0.22770   0.21017 
C          C       0.27489   0.79228   0.31139 
C          C       0.65071   0.79240   0.19019 
C          C       0.31209   0.03926   0.38083 
C          C       0.68791   0.03937   0.25962 
C          C       0.31209   0.11727   0.35483 
C          C       0.68791   0.11738   0.23362 
C          C       0.38879   0.04124   0.56060 
C          C       0.38879   0.22930   0.28996 
C          C       0.76461   0.22941   0.16875 
O          O       0.44558   0.06486   0.50558 
O          O       0.82141   0.06497   0.38437 
O          O       0.44558   0.13495   0.30566 
O          O       0.82141   0.13506   0.18445 
O          O       0.44558   0.80002   0.37057 
O          O       0.82141   0.80013   0.24937 
H          H       0.17621   0.05866   0.42426 
H          H       0.55203   0.05877   0.30306 
H          H       0.17621   0.01608   0.34942 
H          H       0.55203   0.01619   0.22821 
H          H       0.17621   0.92510   0.40813 
H          H       0.55203   0.92521   0.28692 
H          H       0.17576   0.05854   0.46885 
H          H       0.55158   0.05865   0.34764 
H          H       0.17576   0.08302   0.32718 
H          H       0.55158   0.08313   0.20598 
H          H       0.17576   0.85828   0.38578 
H          H       0.55158   0.85839   0.26457 
H          H       0.44586   0.07252   0.56060 
H          H       0.44586   0.21365   0.27431 
H          H       0.82168   0.21377   0.15311 
N          N       0.31209   0.15661   0.34172 
N          N       0.68791   0.15672   0.22051 
C          C       0.68791   0.50006   0.07985 
C          C       0.68791   0.50006   0.02785 
N          N       0.68791   0.50006   0.10606 
N          N       0.68791   0.50006   0.00162 
C          C       0.68791   0.00006   0.57985 
C          C       0.68791   0.00006   0.52785 
N          N       0.68791   0.00006   0.60606 
N          N       0.68791   0.00006   0.50162 
C          C       0.31209   0.49994   0.92015 
C          C       0.31209   0.49994   0.97215 
N          N       0.31209   0.49994   0.89394 
N          N       0.31209   0.49994   0.99838 
C          C       0.31209   0.99994   0.42015 
C          C       0.31209   0.99994   0.47215 
N          N       0.31209   0.99994   0.39394 
N          N       0.31209   0.99994   0.49838 
C          C       0.31209   0.49994   0.20106 
C          C       0.31209   0.49994   0.14906 
N          N       0.31209   0.49994   0.22727 
N          N       0.31209   0.49994   0.12283 
C          C       0.31209   0.99994   0.70106 
C          C       0.31209   0.99994   0.64906 
N          N       0.31209   0.99994   0.72727 
N          N       0.31209   0.99994   0.62283 
C          C       0.68791   0.50006   0.79894 
C          C       0.68791   0.50006   0.85094 
N          N       0.68791   0.50006   0.77273 
N          N       0.68791   0.50006   0.87717 
C          C       0.68791   0.00006   0.29894 
C          C       0.68791   0.00006   0.35094 
N          N       0.68791   0.00006   0.27273 
N          N       0.68791   0.00006   0.37717 
