data_crystal

_cell_length_a    16.66000
_cell_length_b    16.66000
_cell_length_c    8.14000
_cell_angle_alpha 90.00000
_cell_angle_beta  90.00000
_cell_angle_gamma 120.00000

_space_group_name_Hall 'P 1'
_space_group_name_H-M_alt  'P 1'

loop_
_symmetry_equiv_pos_as_xyz
'x,y,z' 

loop_
_atom_site_label
_atom_site_type_symbol
_atom_site_fract_x
_atom_site_fract_y
_atom_site_fract_z
C          C       0.64593   0.66172   0.05836 
O          O       0.32862   0.32105   0.44377 
C          C       0.40776   0.57429   0.33730 
O          O       0.38611   0.27980   0.22705 
C          C       0.70894   0.65078   0.48419 
O          O       0.56133   0.62224   0.01022 
C          C       0.79564   0.70685   0.01733 
O          O       0.41220   0.49940   0.34835 
C          C       0.81846   0.77366   0.12374 
O          O       0.63094   0.37187   0.30163 
C          C       0.75543   0.78384   0.19576 
O          O       0.64942   0.47099   0.08847 
C          C       0.67029   0.72889   0.16234 
C          C       0.26129   0.32881   0.00319 
C          C       0.47215   0.64648   0.26267 
C          C       0.32413   0.19637   0.18984 
C          C       0.47137   0.72298   0.26247 
C          C       0.27334   0.39703   0.09825 
C          C       0.40540   0.72855   0.33608 
C          C       0.20468   0.40957   0.13135 
C          C       0.33882   0.65565   0.40561 
C          C       0.12397   0.35323   0.07015 
C          C       0.33984   0.57871   0.40557 
C          C       0.11191   0.28426   0.47985 
C          C       0.60553   0.28446   0.29430 
C          C       0.18026   0.27264   0.44565 
C          C       0.73366   0.48626   0.08977 
C          C       0.24334   0.16356   0.25474 
C          C       0.53177   0.21863   0.36432 
C          C       0.17886   0.08197   0.21719 
C          C       0.51096   0.13332   0.34998 
C          C       0.19409   0.03084   0.11485 
C          C       0.56408   0.11268   0.26482 
C          C       0.27577   0.06248   0.05184 
C          C       0.63740   0.17770   0.19500 
C          C       0.34087   0.14515   0.08958 
C          C       0.65754   0.26247   0.20942 
C          C       0.40877   0.81120   0.34859 
C          C       0.75602   0.43145   0.01629 
C          C       0.90578   0.84028   0.15648 
C          C       0.83537   0.43948   0.03957 
N          N       0.47311   0.87932   0.29244 
C          C       0.89484   0.50265   0.13819 
N          N       0.97326   0.85029   0.08676 
C          C       0.87426   0.55902   0.21107 
C          C       0.05200   0.36763   0.08123 
C          C       0.79346   0.54994   0.18824 
N          N       0.05675   0.43629   0.13522 
N          N       0.48681   0.32855   0.47775 
N          N       0.98250   0.44104   0.12327 
P          P       0.58288   0.41193   0.43122 
N          N       0.48085   0.95978   0.30835 
N          N       0.56321   0.48355   0.34202 
N          N       0.04880   0.92350   0.12945 
P          P       0.50425   0.51471   0.44964 
C          C       0.97608   0.50570   0.16749 
N          N       0.46742   0.45218   0.10820 
C          C       0.54737   0.02494   0.25012 
P          P       0.41611   0.34780   0.06652 
C          C       0.12232   0.94785   0.06689 
H          H       0.70671   0.37802   0.43387 
H          H       0.59673   0.01298   0.18213 
H          H       0.98478   0.31304   0.03809 
H          H       0.91583   0.88901   0.25435 
H          H       0.48711   0.23575   0.43583 
H          H       0.22987   0.20519   0.34151 
H          H       0.44900   0.07870   0.40912 
H          H       0.61723   0.73855   0.22208 
H          H       0.21448   0.46677   0.20971 
H          H       0.11034   0.05483   0.27139 
H          H       0.77470   0.83922   0.28501 
H          H       0.40989   0.17219   0.03765 
H          H       0.34152   0.44348   0.14976 
H          H       0.03320   0.56470   0.22886 
H          H       0.28196   0.65931   0.46415 
H          H       0.35297   0.81564   0.40969 
H          H       0.71932   0.31680   0.14937 
H          H       0.85349   0.39310   0.47642 
H          H       0.52627   0.78343   0.20029 
H          H       0.16990   0.21511   0.36767 
H          H       0.68220   0.16063   0.12381 
H          H       0.92453   0.61350   0.29076 
H          H       0.28956   0.01992   0.46785 
H          H       0.28347   0.51735   0.46305 
H          H       0.68914   0.59516   0.39524 
H          H       0.77497   0.59593   0.25185 
H          H       0.04317   0.23582   0.43271 
H          H       0.84921   0.69833   0.45681 
H          H       0.13133   0.90531   0.47540 
H          H       0.52747   0.64213   0.19951 
C          C       0.64593   0.66172   0.55836 
O          O       0.32862   0.32105   0.94376 
C          C       0.40776   0.57429   0.83730 
O          O       0.38611   0.27980   0.72705 
C          C       0.70894   0.65078   0.98419 
O          O       0.56133   0.62224   0.51021 
C          C       0.79564   0.70685   0.51733 
O          O       0.41220   0.49940   0.84835 
C          C       0.81846   0.77366   0.62374 
O          O       0.63094   0.37187   0.80163 
C          C       0.75543   0.78384   0.69576 
O          O       0.64942   0.47099   0.58848 
C          C       0.67029   0.72889   0.66234 
C          C       0.26129   0.32881   0.50319 
C          C       0.47215   0.64648   0.76267 
C          C       0.32413   0.19637   0.68984 
C          C       0.47137   0.72298   0.76247 
C          C       0.27334   0.39703   0.59825 
C          C       0.40540   0.72855   0.83608 
C          C       0.20468   0.40957   0.63135 
C          C       0.33882   0.65565   0.90562 
C          C       0.12397   0.35323   0.57015 
C          C       0.33984   0.57871   0.90557 
C          C       0.11191   0.28426   0.97985 
C          C       0.60553   0.28446   0.79430 
C          C       0.18026   0.27264   0.94564 
C          C       0.73366   0.48626   0.58977 
C          C       0.24334   0.16356   0.75474 
C          C       0.53177   0.21863   0.86433 
C          C       0.17886   0.08197   0.71720 
C          C       0.51096   0.13332   0.84998 
C          C       0.19409   0.03084   0.61485 
C          C       0.56408   0.11268   0.76482 
C          C       0.27577   0.06248   0.55184 
C          C       0.63740   0.17770   0.69500 
C          C       0.34087   0.14515   0.58958 
C          C       0.65754   0.26247   0.70942 
C          C       0.40877   0.81120   0.84859 
C          C       0.75602   0.43145   0.51628 
C          C       0.90578   0.84028   0.65648 
C          C       0.83537   0.43948   0.53957 
N          N       0.47311   0.87932   0.79244 
C          C       0.89484   0.50265   0.63819 
N          N       0.97326   0.85029   0.58676 
C          C       0.87426   0.55902   0.71107 
C          C       0.05200   0.36763   0.58122 
C          C       0.79346   0.54994   0.68824 
N          N       0.05675   0.43629   0.63521 
N          N       0.48681   0.32855   0.97775 
N          N       0.98250   0.44104   0.62327 
P          P       0.58288   0.41193   0.93122 
N          N       0.48085   0.95978   0.80835 
N          N       0.56321   0.48355   0.84201 
N          N       0.04880   0.92350   0.62945 
P          P       0.50425   0.51471   0.94964 
C          C       0.97608   0.50570   0.66749 
N          N       0.46742   0.45218   0.60820 
C          C       0.54737   0.02494   0.75012 
P          P       0.41611   0.34780   0.56651 
C          C       0.12232   0.94785   0.56689 
H          H       0.70671   0.37802   0.93387 
H          H       0.59673   0.01298   0.68213 
H          H       0.98478   0.31304   0.53809 
H          H       0.91583   0.88901   0.75435 
H          H       0.48711   0.23575   0.93583 
H          H       0.22987   0.20519   0.84151 
H          H       0.44900   0.07870   0.90912 
H          H       0.61723   0.73855   0.72208 
H          H       0.21448   0.46677   0.70971 
H          H       0.11034   0.05483   0.77139 
H          H       0.77470   0.83922   0.78501 
H          H       0.40989   0.17219   0.53765 
H          H       0.34152   0.44348   0.64976 
H          H       0.03320   0.56470   0.72886 
H          H       0.28196   0.65931   0.96415 
H          H       0.35297   0.81564   0.90969 
H          H       0.71932   0.31680   0.64937 
H          H       0.85349   0.39310   0.97642 
H          H       0.52627   0.78343   0.70029 
H          H       0.16990   0.21511   0.86767 
H          H       0.68220   0.16063   0.62382 
H          H       0.92453   0.61350   0.79076 
H          H       0.28956   0.01992   0.96785 
H          H       0.28347   0.51735   0.96305 
H          H       0.68914   0.59516   0.89524 
H          H       0.77497   0.59593   0.75185 
H          H       0.04317   0.23582   0.93271 
H          H       0.84921   0.69833   0.95681 
H          H       0.13133   0.90531   0.97540 
H          H       0.52747   0.64213   0.69951 
