data_crystal

_cell_length_a    26.13000
_cell_length_b    26.13000
_cell_length_c    9.02000
_cell_angle_alpha 90.00000
_cell_angle_beta  90.00000
_cell_angle_gamma 120.00000

_space_group_name_Hall 'P 1'
_space_group_name_H-M_alt  'P 1'

loop_
_symmetry_equiv_pos_as_xyz
'x,y,z' 

loop_
_atom_site_label
_atom_site_type_symbol
_atom_site_fract_x
_atom_site_fract_y
_atom_site_fract_z
C          C       0.59857   0.48437   0.38145 
N          N       0.46399   0.61797   0.20308 
C          C       0.44517   0.42031   0.05354 
N          N       0.79425   0.61275   0.14672 
C          C       0.63042   0.47182   0.48684 
C          C       0.22082   0.31639   0.21442 
C          C       0.68300   0.51689   0.04705 
N          N       0.23366   0.36627   0.27655 
C          C       0.70452   0.57569   0.00370 
N          N       0.87659   0.41009   0.21296 
C          C       0.67259   0.58883   0.40060 
N          N       0.47126   0.00613   0.19947 
C          C       0.62032   0.54336   0.33885 
N          N       0.19045   0.98020   0.14549 
C          C       0.49383   0.47795   0.05311 
C          C       0.85392   0.43792   0.28066 
C          C       0.48654   0.52615   0.09052 
C          C       0.51954   0.04022   0.12720 
C          C       0.43035   0.51673   0.12884 
C          C       0.22863   0.97699   0.05954 
C          C       0.38196   0.45946   0.12759 
C          C       0.20196   0.39680   0.24773 
C          C       0.38949   0.41177   0.09084 
C          C       0.22220   0.45258   0.31163 
C          C       0.57434   0.21847   0.00851 
C          C       0.19568   0.48603   0.27505 
C          C       0.66786   0.37174   0.26927 
C          C       0.14869   0.46394   0.17399 
C          C       0.51898   0.18369   0.07576 
C          C       0.12836   0.40816   0.10974 
C          C       0.49893   0.12420   0.10902 
C          C       0.15467   0.37464   0.14665 
C          C       0.53436   0.09928   0.07549 
C          C       0.01852   0.42387   0.08738 
C          C       0.58897   0.13374   0.00608 
C          C       0.06014   0.47651   0.15645 
C          C       0.60898   0.19308   0.47387 
C          C       0.04100   0.50710   0.24732 
C          C       0.69043   0.33567   0.22337 
C          C       0.98050   0.48526   0.26885 
C          C       0.75114   0.35640   0.23048 
C          C       0.93878   0.43247   0.19947 
C          C       0.78974   0.41340   0.28432 
C          C       0.95818   0.40184   0.10961 
C          C       0.76717   0.44940   0.33076 
C          C       0.12469   0.50259   0.12500 
C          C       0.70648   0.42865   0.32236 
C          C       0.45405   0.66310   0.26381 
N          N       0.49864   0.25291   0.32223 
C          C       0.50269   0.71733   0.30502 
P          P       0.56328   0.30784   0.39529 
C          C       0.49426   0.76032   0.37547 
N          N       0.54648   0.35092   0.00115 
C          C       0.43699   0.74956   0.40484 
P          P       0.50398   0.37260   0.40895 
C          C       0.38819   0.69550   0.36363 
N          N       0.46736   0.31734   0.28490 
C          C       0.39663   0.65258   0.29308 
P          P       0.43560   0.25198   0.37649 
C          C       0.39472   0.86212   0.40155 
O          O       0.38888   0.24062   0.22111 
C          C       0.43858   0.84619   0.40470 
O          O       0.41087   0.18410   0.28106 
C          C       0.49316   0.88268   0.33621 
O          O       0.54740   0.43998   0.31106 
C          C       0.50361   0.93454   0.26460 
O          O       0.44986   0.36971   0.03263 
C          C       0.45970   0.95074   0.26143 
O          O       0.60060   0.27992   0.00156 
C          C       0.40527   0.91419   0.33035 
O          O       0.60816   0.35336   0.25009 
C          C       0.42818   0.79322   0.49284 
C          C       0.34269   0.25306   0.24061 
C          C       0.84713   0.65797   0.21534 
C          C       0.36777   0.13379   0.35750 
C          C       0.88278   0.64175   0.29526 
C          C       0.34792   0.29749   0.33734 
C          C       0.93316   0.68456   0.36950 
C          C       0.30638   0.31615   0.33530 
C          C       0.94850   0.74407   0.36394 
C          C       0.25850   0.29027   0.23703 
C          C       0.91309   0.76061   0.28397 
C          C       0.25159   0.24425   0.14452 
C          C       0.86278   0.71785   0.20944 
C          C       0.29370   0.22605   0.14587 
C          C       0.05650   0.89396   0.37919 
C          C       0.32829   0.13706   0.45786 
C          C       0.04699   0.83652   0.36605 
C          C       0.28331   0.08618   0.02417 
C          C       0.08512   0.82596   0.27836 
C          C       0.27669   0.03079   0.49142 
C          C       0.13252   0.87290   0.20384 
C          C       0.31580   0.02699   0.39164 
C          C       0.14208   0.93068   0.21732 
C          C       0.36086   0.07824   0.32431 
C          C       0.10367   0.94070   0.30483 
C          C       0.42080   0.56447   0.18145 
C          C       0.99895   0.78828   0.45577 
C          C       0.75942   0.62376   0.06689 
H          H       0.22506   0.93433   0.03781 
H          H       0.33817   0.45195   0.15538 
H          H       0.35144   0.36723   0.09122 
H          H       0.55015   0.02437   0.10411 
H          H       0.02709   0.90231   0.44752 
H          H       0.33292   0.17986   0.48409 
H          H       0.59634   0.55390   0.25701 
H          H       0.35226   0.83391   0.45465 
H          H       0.87124   0.59555   0.29968 
H          H       0.70732   0.50633   0.12780 
H          H       0.61600   0.11426   0.47701 
H          H       0.96572   0.50917   0.33941 
H          H       0.68845   0.63450   0.36839 
H          H       0.25875   0.46997   0.39014 
H          H       0.03330   0.40012   0.01623 
H          H       0.45591   0.09731   0.16081 
H          H       0.53744   0.48537   0.02365 
H          H       0.88282   0.47986   0.33523 
H          H       0.11060   0.98525   0.31505 
H          H       0.37579   0.55467   0.20320 
H          H       0.13163   0.50980   0.00603 
H          H       0.14869   0.54475   0.18262 
H          H       0.68916   0.45695   0.35736 
H          H       0.52749   0.87065   0.33872 
H          H       0.34362   0.68682   0.38645 
H          H       0.31118   0.35094   0.41033 
H          H       0.54600   0.96256   0.21096 
H          H       0.16194   0.86457   0.13547 
H          H       0.31122   0.98415   0.36626 
H          H       0.92607   0.36065   0.05682 
H          H       0.09195   0.39093   0.03084 
H          H       0.25319   0.08952   0.10176 
H          H       0.96050   0.67150   0.43176 
H          H       0.65189   0.21980   0.42139 
H          H       0.21160   0.52930   0.32522 
H          H       0.54730   0.72613   0.28217 
H          H       0.92473   0.80684   0.27979 
H          H       0.21342   0.22257   0.07139 
H          H       0.35849   0.61071   0.26055 
H          H       0.53235   0.80230   0.40760 
H          H       0.37099   0.92630   0.32859 
H          H       0.13851   0.33124   0.09700 
H          H       0.18166   0.29375   0.14482 
H          H       0.61387   0.42634   0.02202 
H          H       0.66058   0.29133   0.18203 
H          H       0.83564   0.73100   0.14662 
H          H       0.28833   0.19057   0.07261 
H          H       0.45874   0.80814   0.08609 
H          H       0.38295   0.77118   0.03406 
H          H       0.79690   0.49355   0.37340 
H          H       0.76849   0.32828   0.19419 
H          H       0.52444   0.57078   0.08980 
H          H       0.39066   0.07483   0.24575 
H          H       0.38479   0.31761   0.41479 
H          H       0.07794   0.78131   0.26812 
H          H       0.01759   0.76538   0.01640 
H          H       0.98217   0.80812   0.03399 
H          H       0.77116   0.66943   0.04652 
H          H       0.07321   0.54793   0.30132 
H          H       0.49154   0.20297   0.10216 
C          C       0.59857   0.48437   0.88145 
N          N       0.46399   0.61797   0.70308 
C          C       0.44517   0.42031   0.55354 
N          N       0.79425   0.61275   0.64672 
C          C       0.63042   0.47182   0.98684 
C          C       0.22082   0.31639   0.71442 
C          C       0.68300   0.51689   0.54705 
N          N       0.23366   0.36627   0.77655 
C          C       0.70452   0.57569   0.50370 
N          N       0.87659   0.41009   0.71296 
C          C       0.67259   0.58883   0.90060 
N          N       0.47126   0.00613   0.69947 
C          C       0.62032   0.54336   0.83885 
N          N       0.19045   0.98020   0.64549 
C          C       0.49383   0.47795   0.55311 
C          C       0.85392   0.43792   0.78066 
C          C       0.48654   0.52615   0.59052 
C          C       0.51954   0.04022   0.62720 
C          C       0.43035   0.51673   0.62884 
C          C       0.22863   0.97699   0.55954 
C          C       0.38196   0.45946   0.62759 
C          C       0.20196   0.39680   0.74773 
C          C       0.38949   0.41177   0.59084 
C          C       0.22220   0.45258   0.81163 
C          C       0.57434   0.21847   0.50851 
C          C       0.19568   0.48603   0.77505 
C          C       0.66786   0.37174   0.76927 
C          C       0.14869   0.46394   0.67399 
C          C       0.51898   0.18369   0.57576 
C          C       0.12836   0.40816   0.60974 
C          C       0.49893   0.12420   0.60902 
C          C       0.15467   0.37464   0.64665 
C          C       0.53436   0.09928   0.57549 
C          C       0.01852   0.42387   0.58738 
C          C       0.58897   0.13374   0.50608 
C          C       0.06014   0.47651   0.65645 
C          C       0.60898   0.19308   0.97387 
C          C       0.04100   0.50710   0.74732 
C          C       0.69043   0.33567   0.72337 
C          C       0.98050   0.48526   0.76885 
C          C       0.75114   0.35640   0.73048 
C          C       0.93878   0.43247   0.69947 
C          C       0.78974   0.41340   0.78432 
C          C       0.95818   0.40184   0.60961 
C          C       0.76717   0.44940   0.83076 
C          C       0.12469   0.50259   0.62500 
C          C       0.70648   0.42865   0.82236 
C          C       0.45405   0.66310   0.76381 
N          N       0.49864   0.25291   0.82223 
C          C       0.50269   0.71733   0.80502 
P          P       0.56328   0.30784   0.89529 
C          C       0.49426   0.76032   0.87547 
N          N       0.54648   0.35092   0.50115 
C          C       0.43699   0.74956   0.90484 
P          P       0.50398   0.37260   0.90895 
C          C       0.38819   0.69550   0.86363 
N          N       0.46736   0.31734   0.78490 
C          C       0.39663   0.65258   0.79308 
P          P       0.43560   0.25198   0.87649 
C          C       0.39472   0.86212   0.90155 
O          O       0.38888   0.24062   0.72111 
C          C       0.43858   0.84619   0.90470 
O          O       0.41087   0.18410   0.78106 
C          C       0.49316   0.88268   0.83621 
O          O       0.54740   0.43998   0.81106 
C          C       0.50361   0.93454   0.76460 
O          O       0.44986   0.36971   0.53263 
C          C       0.45970   0.95074   0.76143 
O          O       0.60060   0.27992   0.50156 
C          C       0.40527   0.91419   0.83035 
O          O       0.60816   0.35336   0.75009 
C          C       0.42818   0.79322   0.99284 
C          C       0.34269   0.25306   0.74061 
C          C       0.84713   0.65797   0.71534 
C          C       0.36777   0.13379   0.85750 
C          C       0.88278   0.64175   0.79526 
C          C       0.34792   0.29749   0.83734 
C          C       0.93316   0.68456   0.86950 
C          C       0.30638   0.31615   0.83530 
C          C       0.94850   0.74407   0.86394 
C          C       0.25850   0.29027   0.73703 
C          C       0.91309   0.76061   0.78397 
C          C       0.25159   0.24425   0.64452 
C          C       0.86278   0.71785   0.70944 
C          C       0.29370   0.22605   0.64587 
C          C       0.05650   0.89396   0.87919 
C          C       0.32829   0.13706   0.95786 
C          C       0.04699   0.83652   0.86605 
C          C       0.28331   0.08618   0.52417 
C          C       0.08512   0.82596   0.77836 
C          C       0.27669   0.03079   0.99142 
C          C       0.13252   0.87290   0.70384 
C          C       0.31580   0.02699   0.89164 
C          C       0.14208   0.93068   0.71732 
C          C       0.36086   0.07824   0.82431 
C          C       0.10367   0.94070   0.80483 
C          C       0.42080   0.56447   0.68145 
C          C       0.99895   0.78828   0.95577 
C          C       0.75942   0.62376   0.56689 
H          H       0.22506   0.93433   0.53781 
H          H       0.33817   0.45195   0.65538 
H          H       0.35144   0.36723   0.59122 
H          H       0.55015   0.02437   0.60411 
H          H       0.02709   0.90231   0.94752 
H          H       0.33292   0.17986   0.98409 
H          H       0.59634   0.55390   0.75701 
H          H       0.35226   0.83391   0.95465 
H          H       0.87124   0.59555   0.79968 
H          H       0.70732   0.50633   0.62780 
H          H       0.61600   0.11426   0.97701 
H          H       0.96572   0.50917   0.83941 
H          H       0.68845   0.63450   0.86839 
H          H       0.25875   0.46997   0.89014 
H          H       0.03330   0.40012   0.51623 
H          H       0.45591   0.09731   0.66081 
H          H       0.53744   0.48537   0.52365 
H          H       0.88282   0.47986   0.83523 
H          H       0.11060   0.98525   0.81505 
H          H       0.37579   0.55467   0.70320 
H          H       0.13163   0.50980   0.50603 
H          H       0.14869   0.54475   0.68262 
H          H       0.68916   0.45695   0.85736 
H          H       0.52749   0.87065   0.83872 
H          H       0.34362   0.68682   0.88645 
H          H       0.31118   0.35094   0.91033 
H          H       0.54600   0.96256   0.71096 
H          H       0.16194   0.86457   0.63547 
H          H       0.31122   0.98415   0.86626 
H          H       0.92607   0.36065   0.55682 
H          H       0.09195   0.39093   0.53084 
H          H       0.25319   0.08952   0.60176 
H          H       0.96050   0.67150   0.93176 
H          H       0.65189   0.21980   0.92139 
H          H       0.21160   0.52930   0.82522 
H          H       0.54730   0.72613   0.78217 
H          H       0.92473   0.80684   0.77979 
H          H       0.21342   0.22257   0.57139 
H          H       0.35849   0.61071   0.76055 
H          H       0.53235   0.80230   0.90760 
H          H       0.37099   0.92630   0.82859 
H          H       0.13851   0.33124   0.59700 
H          H       0.18166   0.29375   0.64482 
H          H       0.61387   0.42634   0.52202 
H          H       0.66058   0.29133   0.68203 
H          H       0.83564   0.73100   0.64662 
H          H       0.28833   0.19057   0.57261 
H          H       0.45874   0.80814   0.58609 
H          H       0.38295   0.77118   0.53406 
H          H       0.79690   0.49355   0.87340 
H          H       0.76849   0.32828   0.69419 
H          H       0.52444   0.57078   0.58980 
H          H       0.39066   0.07483   0.74575 
H          H       0.38479   0.31761   0.91479 
H          H       0.07794   0.78131   0.76812 
H          H       0.01759   0.76538   0.51640 
H          H       0.98217   0.80812   0.53399 
H          H       0.77116   0.66943   0.54652 
H          H       0.07321   0.54793   0.80132 
H          H       0.49154   0.20297   0.60216 
