data_crystal

_cell_length_a    26.45000
_cell_length_b    26.45000
_cell_length_c    8.74000
_cell_angle_alpha 90.00000
_cell_angle_beta  90.00000
_cell_angle_gamma 120.00000

_space_group_name_Hall 'P 1'
_space_group_name_H-M_alt  'P 1'

loop_
_symmetry_equiv_pos_as_xyz
'x,y,z' 

loop_
_atom_site_label
_atom_site_type_symbol
_atom_site_fract_x
_atom_site_fract_y
_atom_site_fract_z
N          N       0.44980   0.31995   0.10688 
N          N       0.79810   0.60688   0.09343 
P          P       0.43019   0.26045   0.49847 
C          C       0.46014   0.68680   0.33362 
N          N       0.48559   0.28318   0.37336 
C          C       0.85656   0.65421   0.07185 
P          P       0.55073   0.32256   0.45958 
C          C       0.50884   0.73500   0.26986 
N          N       0.53943   0.37798   0.40891 
C          C       0.51525   0.79023   0.28240 
P          P       0.48622   0.38207   0.00644 
C          C       0.47349   0.79850   0.35788 
O          O       0.51646   0.44186   0.13186 
C          C       0.42433   0.75000   0.41938 
O          O       0.43475   0.38158   0.37822 
C          C       0.41769   0.69456   0.40756 
O          O       0.56253   0.29054   0.29759 
C          C       0.90409   0.65336   0.14005 
O          O       0.61332   0.37104   0.35359 
C          C       0.96038   0.70167   0.12637 
O          O       0.36674   0.24101   0.38981 
C          C       0.97020   0.75083   0.04273 
O          O       0.43099   0.20506   0.11027 
C          C       0.92276   0.75054   0.47204 
C          C       0.42943   0.43126   0.38369 
C          C       0.86681   0.70307   0.48650 
C          C       0.57537   0.48173   0.10877 
C          C       0.18096   0.27439   0.07600 
C          C       0.66729   0.38195   0.41254 
N          N       0.18901   0.32413   0.12381 
C          C       0.56220   0.23820   0.32281 
C          C       0.14114   0.33383   0.15166 
C          C       0.32176   0.24739   0.45339 
C          C       0.14930   0.39042   0.14192 
C          C       0.38227   0.14860   0.10615 
C          C       0.10138   0.39899   0.15216 
C          C       0.47849   0.48669   0.36988 
C          C       0.04511   0.35186   0.17745 
C          C       0.47258   0.53579   0.36523 
C          C       0.03765   0.29588   0.19327 
C          C       0.41734   0.53030   0.37403 
C          C       0.08501   0.28687   0.17966 
C          C       0.36786   0.47499   0.38670 
C          C       0.99364   0.35983   0.17608 
C          C       0.37395   0.42547   0.38954 
C          C       0.99555   0.40747   0.10138 
C          C       0.61875   0.46735   0.13741 
C          C       0.94514   0.41147   0.08595 
C          C       0.67767   0.50945   0.12032 
C          C       0.89195   0.36813   0.14643 
C          C       0.69320   0.56610   0.07516 
C          C       0.89047   0.32162   0.22659 
C          C       0.64992   0.58042   0.04956 
C          C       0.94073   0.31730   0.23905 
C          C       0.59142   0.53866   0.06791 
N          N       0.83853   0.36790   0.11761 
C          C       0.67177   0.34397   0.01541 
C          C       0.83428   0.40528   0.03194 
C          C       0.72612   0.35239   0.05799 
C          C       0.52963   0.90477   0.30261 
C          C       0.77715   0.39915   0.49900 
C          C       0.53856   0.96087   0.31705 
C          C       0.77313   0.43768   0.39835 
C          C       0.50044   0.97121   0.40400 
C          C       0.71849   0.42895   0.35508 
C          C       0.45316   0.92439   0.47703 
C          C       0.52016   0.19450   0.42196 
C          C       0.44424   0.86806   0.46139 
C          C       0.51528   0.13875   0.43433 
N          N       0.50814   0.02850   0.41441 
C          C       0.55262   0.12642   0.34901 
C          C       0.54787   0.07228   0.33933 
C          C       0.58972   0.17223   0.26464 
C          C       0.48228   0.85775   0.37389 
C          C       0.59994   0.22642   0.23608 
C          C       0.07664   0.80791   0.11239 
C          C       0.33185   0.13439   0.02351 
C          C       0.13041   0.85985   0.11018 
C          C       0.28454   0.07787   0.02373 
C          C       0.13686   0.90833   0.02910 
C          C       0.28669   0.03402   0.10662 
C          C       0.08919   0.90379   0.44828 
C          C       0.33686   0.04754   0.18930 
C          C       0.03579   0.85218   0.45199 
C          C       0.38436   0.10455   0.18878 
N          N       0.19001   0.96323   0.03216 
C          C       0.33161   0.29238   0.05409 
C          C       0.23599   0.97486   0.10994 
C          C       0.28584   0.30124   0.09769 
C          C       0.02861   0.80376   0.03405 
C          C       0.22954   0.26468   0.04194 
C          C       0.55486   0.72858   0.19016 
C          C       0.21942   0.21914   0.44451 
C          C       0.41151   0.93347   0.07008 
C          C       0.26532   0.21101   0.39946 
C          C       0.20806   0.44163   0.11246 
C          C       0.41227   0.58270   0.37167 
C          C       0.83521   0.27487   0.29401 
C          C       0.75374   0.61216   0.05512 
C          C       0.89546   0.60251   0.23174 
N          N       0.45713   0.63155   0.33189 
C          C       0.09387   0.95405   0.36089 
H          H       0.71135   0.49814   0.14213 
H          H       0.63232   0.30741   0.06275 
H          H       0.48270   0.10576   0.00970 
H          H       0.51117   0.57888   0.35467 
H          H       0.37531   0.32077   0.09898 
H          H       0.93872   0.28021   0.29879 
H          H       0.33536   0.38223   0.39632 
H          H       0.87353   0.44177   0.48357 
H          H       0.63283   0.25697   0.15690 
H          H       0.32948   0.16811   0.45772 
H          H       0.39097   0.95181   0.49845 
H          H       0.37815   0.89183   0.11670 
H          H       0.43481   0.96344   0.16347 
H          H       0.07837   0.24295   0.19088 
H          H       0.32469   0.47047   0.39434 
H          H       0.39101   0.75570   0.47697 
H          H       0.55794   0.55056   0.05019 
H          H       0.17541   0.18966   0.40317 
H          H       0.24550   0.06779   0.45861 
H          H       0.42345   0.11466   0.25369 
H          H       0.61987   0.16312   0.20198 
H          H       0.99886   0.84947   0.38968 
H          H       0.10786   0.44283   0.14035 
H          H       0.87591   0.56356   0.16030 
H          H       0.93745   0.61034   0.27450 
H          H       0.86668   0.59627   0.32781 
H          H       0.16745   0.86256   0.17191 
H          H       0.57810   0.06637   0.26723 
H          H       0.94720   0.44861   0.02636 
H          H       0.37143   0.58066   0.40286 
H          H       0.12749   0.96707   0.27354 
H          H       0.05217   0.94151   0.30660 
H          H       0.10539   0.99047   0.43839 
H          H       0.71581   0.45920   0.27550 
H          H       0.57558   0.99708   0.26012 
H          H       0.55989   0.89735   0.23494 
H          H       0.40722   0.83175   0.01803 
H          H       0.99438   0.25900   0.21644 
H          H       0.81266   0.47475   0.35312 
H          H       0.60657   0.42325   0.17309 
H          H       0.99693   0.70094   0.18152 
H          H       0.33916   0.01367   0.25456 
H          H       0.03671   0.44176   0.05481 
H          H       0.37931   0.65711   0.45606 
H          H       0.55338   0.82758   0.23265 
H          H       0.25700   0.17571   0.32094 
H          H       0.13649   0.23852   0.06060 
H          H       0.52173   0.49137   0.36271 
H          H       0.83044   0.70392   0.43061 
H          H       0.92975   0.78811   0.40456 
H          H       0.66197   0.62460   0.01496 
H          H       0.49134   0.20413   0.48926 
H          H       0.22442   0.43602   0.00316 
H          H       0.20498   0.48116   0.10918 
H          H       0.23781   0.44521   0.20344 
H          H       0.07215   0.77040   0.17563 
H          H       0.29407   0.33675   0.17537 
H          H       0.53574   0.69902   0.09347 
H          H       0.58868   0.77108   0.14927 
H          H       0.57393   0.71093   0.26927 
H          H       0.72888   0.32228   0.13792 
H          H       0.80307   0.25339   0.20367 
H          H       0.84333   0.24302   0.35113 
H          H       0.81871   0.29391   0.37667 
H          H       0.76205   0.65332   0.00506 
H          H       0.23717   0.94092   0.17775 
N          N       0.44980   0.31995   0.60688 
N          N       0.79810   0.60688   0.59343 
P          P       0.43019   0.26045   0.99847 
C          C       0.46014   0.68680   0.83362 
N          N       0.48559   0.28318   0.87336 
C          C       0.85656   0.65421   0.57185 
P          P       0.55073   0.32256   0.95958 
C          C       0.50884   0.73500   0.76986 
N          N       0.53943   0.37798   0.90891 
C          C       0.51525   0.79023   0.78240 
P          P       0.48622   0.38207   0.50644 
C          C       0.47349   0.79850   0.85788 
O          O       0.51646   0.44186   0.63186 
C          C       0.42433   0.75000   0.91938 
O          O       0.43475   0.38158   0.87822 
C          C       0.41769   0.69456   0.90756 
O          O       0.56253   0.29054   0.79759 
C          C       0.90409   0.65336   0.64005 
O          O       0.61332   0.37104   0.85359 
C          C       0.96038   0.70167   0.62637 
O          O       0.36674   0.24101   0.88981 
C          C       0.97020   0.75083   0.54273 
O          O       0.43099   0.20506   0.61027 
C          C       0.92276   0.75054   0.97204 
C          C       0.42943   0.43126   0.88369 
C          C       0.86681   0.70307   0.98650 
C          C       0.57537   0.48173   0.60877 
C          C       0.18096   0.27439   0.57600 
C          C       0.66729   0.38195   0.91254 
N          N       0.18901   0.32413   0.62381 
C          C       0.56220   0.23820   0.82281 
C          C       0.14114   0.33383   0.65166 
C          C       0.32176   0.24739   0.95339 
C          C       0.14930   0.39042   0.64192 
C          C       0.38227   0.14860   0.60615 
C          C       0.10138   0.39899   0.65216 
C          C       0.47849   0.48669   0.86988 
C          C       0.04511   0.35186   0.67745 
C          C       0.47258   0.53579   0.86523 
C          C       0.03765   0.29588   0.69327 
C          C       0.41734   0.53030   0.87403 
C          C       0.08501   0.28687   0.67966 
C          C       0.36786   0.47499   0.88670 
C          C       0.99364   0.35983   0.67608 
C          C       0.37395   0.42547   0.88954 
C          C       0.99555   0.40747   0.60138 
C          C       0.61875   0.46735   0.63741 
C          C       0.94514   0.41147   0.58595 
C          C       0.67767   0.50945   0.62032 
C          C       0.89195   0.36813   0.64643 
C          C       0.69320   0.56610   0.57516 
C          C       0.89047   0.32162   0.72659 
C          C       0.64992   0.58042   0.54956 
C          C       0.94073   0.31730   0.73905 
C          C       0.59142   0.53866   0.56791 
N          N       0.83853   0.36790   0.61761 
C          C       0.67177   0.34397   0.51541 
C          C       0.83428   0.40528   0.53194 
C          C       0.72612   0.35239   0.55799 
C          C       0.52963   0.90477   0.80261 
C          C       0.77715   0.39915   0.99900 
C          C       0.53856   0.96087   0.81705 
C          C       0.77313   0.43768   0.89835 
C          C       0.50044   0.97121   0.90400 
C          C       0.71849   0.42895   0.85508 
C          C       0.45316   0.92439   0.97703 
C          C       0.52016   0.19450   0.92196 
C          C       0.44424   0.86806   0.96139 
C          C       0.51528   0.13875   0.93433 
N          N       0.50814   0.02850   0.91441 
C          C       0.55262   0.12642   0.84901 
C          C       0.54787   0.07228   0.83933 
C          C       0.58972   0.17223   0.76464 
C          C       0.48228   0.85775   0.87389 
C          C       0.59994   0.22642   0.73608 
C          C       0.07664   0.80791   0.61239 
C          C       0.33185   0.13439   0.52351 
C          C       0.13041   0.85985   0.61018 
C          C       0.28454   0.07787   0.52373 
C          C       0.13686   0.90833   0.52910 
C          C       0.28669   0.03402   0.60662 
C          C       0.08919   0.90379   0.94828 
C          C       0.33686   0.04754   0.68930 
C          C       0.03579   0.85218   0.95199 
C          C       0.38436   0.10455   0.68878 
N          N       0.19001   0.96323   0.53216 
C          C       0.33161   0.29238   0.55409 
C          C       0.23599   0.97486   0.60994 
C          C       0.28584   0.30124   0.59769 
C          C       0.02861   0.80376   0.53405 
C          C       0.22954   0.26468   0.54194 
C          C       0.55486   0.72858   0.69016 
C          C       0.21942   0.21914   0.94451 
C          C       0.41151   0.93347   0.57008 
C          C       0.26532   0.21101   0.89946 
C          C       0.20806   0.44163   0.61246 
C          C       0.41227   0.58270   0.87167 
C          C       0.83521   0.27487   0.79401 
C          C       0.75374   0.61216   0.55512 
C          C       0.89546   0.60251   0.73174 
N          N       0.45713   0.63155   0.83189 
C          C       0.09387   0.95405   0.86089 
H          H       0.71135   0.49814   0.64213 
H          H       0.63232   0.30741   0.56275 
H          H       0.48270   0.10576   0.50970 
H          H       0.51117   0.57888   0.85467 
H          H       0.37531   0.32077   0.59898 
H          H       0.93872   0.28021   0.79879 
H          H       0.33536   0.38223   0.89632 
H          H       0.87353   0.44177   0.98357 
H          H       0.63283   0.25697   0.65690 
H          H       0.32948   0.16811   0.95772 
H          H       0.39097   0.95181   0.99845 
H          H       0.37815   0.89183   0.61670 
H          H       0.43481   0.96344   0.66347 
H          H       0.07837   0.24295   0.69088 
H          H       0.32469   0.47047   0.89434 
H          H       0.39101   0.75570   0.97697 
H          H       0.55794   0.55056   0.55019 
H          H       0.17541   0.18966   0.90317 
H          H       0.24550   0.06779   0.95861 
H          H       0.42345   0.11466   0.75369 
H          H       0.61987   0.16312   0.70198 
H          H       0.99886   0.84947   0.88968 
H          H       0.10786   0.44283   0.64035 
H          H       0.87591   0.56356   0.66030 
H          H       0.93745   0.61034   0.77450 
H          H       0.86668   0.59627   0.82781 
H          H       0.16745   0.86256   0.67191 
H          H       0.57810   0.06637   0.76723 
H          H       0.94720   0.44861   0.52636 
H          H       0.37143   0.58066   0.90286 
H          H       0.12749   0.96707   0.77354 
H          H       0.05217   0.94151   0.80660 
H          H       0.10539   0.99047   0.93839 
H          H       0.71581   0.45920   0.77550 
H          H       0.57558   0.99708   0.76012 
H          H       0.55989   0.89735   0.73494 
H          H       0.40722   0.83175   0.51803 
H          H       0.99438   0.25900   0.71644 
H          H       0.81266   0.47475   0.85312 
H          H       0.60657   0.42325   0.67309 
H          H       0.99693   0.70094   0.68152 
H          H       0.33916   0.01367   0.75456 
H          H       0.03671   0.44176   0.55481 
H          H       0.37931   0.65711   0.95606 
H          H       0.55338   0.82758   0.73265 
H          H       0.25700   0.17571   0.82094 
H          H       0.13649   0.23852   0.56060 
H          H       0.52173   0.49137   0.86271 
H          H       0.83044   0.70392   0.93061 
H          H       0.92975   0.78811   0.90456 
H          H       0.66197   0.62460   0.51496 
H          H       0.49134   0.20413   0.98926 
H          H       0.22442   0.43602   0.50316 
H          H       0.20498   0.48116   0.60918 
H          H       0.23781   0.44521   0.70344 
H          H       0.07215   0.77040   0.67563 
H          H       0.29407   0.33675   0.67537 
H          H       0.53574   0.69902   0.59347 
H          H       0.58868   0.77108   0.64927 
H          H       0.57393   0.71093   0.76927 
H          H       0.72888   0.32228   0.63792 
H          H       0.80307   0.25339   0.70367 
H          H       0.84333   0.24302   0.85113 
H          H       0.81871   0.29391   0.87667 
H          H       0.76205   0.65332   0.50506 
H          H       0.23717   0.94092   0.67775 
