data_crystal
 
_cell_length_a    21.38000
_cell_length_b    21.38000
_cell_length_c    8.44000
_cell_angle_alpha 90.00000
_cell_angle_beta  90.00000
_cell_angle_gamma 120.00000
 
_space_group_name_Hall 'P 1'
_space_group_name_H-M_alt  'P 1'
 
loop_
_symmetry_equiv_pos_as_xyz
 'x,y,z' 
 
loop_
_atom_site_label
_atom_site_type_symbol
_atom_site_fract_x
_atom_site_fract_y
_atom_site_fract_z
N          N       0.33554   0.39894   0.34741 
C          C       0.05970   0.33780   0.36193 
P          P       0.26058   0.34179   0.45524 
C          C       0.01007   0.28774   0.46706 
N          N       0.29155   0.29344   0.05250 
C          C       0.01674   0.22975   0.01611 
P          P       0.32308   0.25097   0.42917 
C          C       0.07578   0.22481   0.46704 
N          N       0.38693   0.33526   0.34600 
C          C       0.32214   0.50867   0.11245 
P          P       0.41794   0.42102   0.42969 
C          C       0.34568   0.58007   0.07830 
O          O       0.47990   0.43897   0.27554 
C          C       0.30340   0.59821   0.48616 
O          O       0.42257   0.49661   0.33733 
C          C       0.23696   0.54513   0.43291 
O          O       0.30646   0.19331   0.09346 
C          C       0.21351   0.47409   0.46796 
O          O       0.40870   0.27491   0.00634 
C          C       0.64238   0.76457   0.05072 
O          O       0.23176   0.38417   0.09084 
C          C       0.74288   0.47211   0.47143 
O          O       0.19025   0.27869   0.33559 
N          N       0.68959   0.76601   0.14705 
C          C       0.47394   0.56243   0.40114 
N          N       0.74243   0.42311   0.06002 
C          C       0.54521   0.45026   0.33184 
C          C       0.75610   0.82764   0.18120 
C          C       0.43368   0.22749   0.47011 
C          C       0.80311   0.41539   0.08271 
C          C       0.23554   0.13949   0.11686 
C          C       0.80665   0.81824   0.26354 
C          C       0.25653   0.45535   0.05460 
C          C       0.87689   0.87340   0.27223 
C          C       0.12712   0.27748   0.36846 
C          C       0.89701   0.93873   0.19857 
C          C       0.52520   0.56791   0.01055 
C          C       0.84580   0.94921   0.12216 
C          C       0.57845   0.63369   0.06250 
C          C       0.77550   0.89381   0.11271 
C          C       0.58126   0.69588   0.00830 
C          C       0.79232   0.35036   0.14061 
C          C       0.52993   0.69151   0.40134 
C          C       0.84619   0.33333   0.12824 
C          C       0.47646   0.62485   0.34794 
C          C       0.91122   0.38207   0.05831 
C          C       0.54785   0.40188   0.43708 
C          C       0.92331   0.44854   0.00873 
C          C       0.61248   0.41079   0.48707 
C          C       0.86942   0.46520   0.01994 
C          C       0.67588   0.46882   0.43370 
N          N       0.97001   0.99164   0.18155 
C          C       0.67411   0.51779   0.32846 
N          N       0.96244   0.36259   0.01568 
C          C       0.60860   0.50839   0.27726 
C          C       0.02198   0.98280   0.22804 
C          C       0.39518   0.16824   0.37118 
C          C       0.95420   0.29951   0.02966 
C          C       0.41427   0.11635   0.35698 
C          C       0.32605   0.67165   0.44382 
C          C       0.47298   0.12254   0.43983 
N          N       0.38735   0.72503   0.48329 
C          C       0.51405   0.18302   0.03281 
C          C       0.40556   0.79616   0.44158 
C          C       0.49440   0.23532   0.04761 
C          C       0.46681   0.85412   0.00529 
C          C       0.17803   0.14451   0.05581 
C          C       0.48058   0.92371   0.47905 
C          C       0.10860   0.09382   0.09329 
C          C       0.43326   0.93528   0.38714 
C          C       0.09519   0.03687   0.19250 
C          C       0.37366   0.87761   0.31986 
C          C       0.15184   0.03042   0.25207 
C          C       0.35980   0.80870   0.34654 
C          C       0.22187   0.08207   0.21545 
N          N       0.43772   0.00292   0.37647 
C          C       0.11754   0.33240   0.31241 
C          C       0.48345   0.06085   0.44771 
H          H       0.05244   0.38174   0.31862 
H          H       0.97599   0.18842   0.09250 
H          H       0.08205   0.17965   0.00563 
H          H       0.35522   0.49431   0.18494 
H          H       0.39744   0.62222   0.12361 
H          H       0.20311   0.55946   0.36316 
H          H       0.16063   0.43220   0.42722 
H          H       0.64848   0.81447   0.00193 
H          H       0.79361   0.51574   0.42536 
H          H       0.79069   0.76693   0.32165 
H          H       0.91676   0.86590   0.33682 
H          H       0.52279   0.51899   0.05539 
H          H       0.86118   0.00143   0.06939 
H          H       0.61863   0.63702   0.14661 
H          H       0.73520   0.90186   0.05167 
H          H       0.74113   0.31254   0.19608 
H          H       0.53176   0.74058   0.35947 
H          H       0.83781   0.28193   0.17307 
H          H       0.43626   0.62148   0.26384 
H          H       0.49779   0.35626   0.48032 
H          H       0.97574   0.48787   0.46061 
H          H       0.61396   0.37217   0.06890 
H          H       0.87871   0.51755   0.47954 
H          H       0.72431   0.56357   0.28632 
H          H       0.60691   0.54656   0.19438 
H          H       0.01086   0.93458   0.29419 
H          H       0.34931   0.16320   0.30435 
H          H       0.90659   0.25612   0.08691 
H          H       0.38321   0.06995   0.28023 
H          H       0.28931   0.68231   0.37497 
H          H       0.56169   0.18931   0.09406 
H          H       0.52673   0.28286   0.12043 
H          H       0.50407   0.84491   0.07594 
H          H       0.18821   0.18911   0.47750 
H          H       0.52836   0.96938   0.03019 
H          H       0.06374   0.09825   0.04499 
H          H       0.33749   0.88685   0.24529 
H          H       0.14131   0.98485   0.32748 
H          H       0.31257   0.76332   0.29294 
H          H       0.26672   0.07776   0.26424 
H          H       0.15597   0.37150   0.22872 
H          H       0.52884   0.06354   0.01227 
N          N       0.33554   0.39894   0.84741 
C          C       0.05970   0.33780   0.86193 
P          P       0.26058   0.34179   0.95524 
C          C       0.01007   0.28774   0.96706 
N          N       0.29155   0.29344   0.55250 
C          C       0.01674   0.22975   0.51611 
P          P       0.32308   0.25097   0.92917 
C          C       0.07578   0.22481   0.96704 
N          N       0.38693   0.33526   0.84600 
C          C       0.32214   0.50867   0.61245 
P          P       0.41794   0.42102   0.92969 
C          C       0.34568   0.58007   0.57830 
O          O       0.47990   0.43897   0.77554 
C          C       0.30340   0.59821   0.98616 
O          O       0.42257   0.49661   0.83733 
C          C       0.23696   0.54513   0.93291 
O          O       0.30646   0.19331   0.59346 
C          C       0.21351   0.47409   0.96796 
O          O       0.40870   0.27491   0.50634 
C          C       0.64238   0.76457   0.55072 
O          O       0.23176   0.38417   0.59084 
C          C       0.74288   0.47211   0.97143 
O          O       0.19025   0.27869   0.83559 
N          N       0.68959   0.76601   0.64705 
C          C       0.47394   0.56243   0.90114 
N          N       0.74243   0.42311   0.56002 
C          C       0.54521   0.45026   0.83184 
C          C       0.75610   0.82764   0.68120 
C          C       0.43368   0.22749   0.97011 
C          C       0.80311   0.41539   0.58271 
C          C       0.23554   0.13949   0.61686 
C          C       0.80665   0.81824   0.76354 
C          C       0.25653   0.45535   0.55460 
C          C       0.87689   0.87340   0.77223 
C          C       0.12712   0.27748   0.86846 
C          C       0.89701   0.93873   0.69857 
C          C       0.52520   0.56791   0.51055 
C          C       0.84580   0.94921   0.62216 
C          C       0.57845   0.63369   0.56250 
C          C       0.77550   0.89381   0.61271 
C          C       0.58126   0.69588   0.50830 
C          C       0.79232   0.35036   0.64061 
C          C       0.52993   0.69151   0.90134 
C          C       0.84619   0.33333   0.62824 
C          C       0.47646   0.62485   0.84794 
C          C       0.91122   0.38207   0.55831 
C          C       0.54785   0.40188   0.93708 
C          C       0.92331   0.44854   0.50873 
C          C       0.61248   0.41079   0.98707 
C          C       0.86942   0.46520   0.51994 
C          C       0.67588   0.46882   0.93370 
N          N       0.97001   0.99164   0.68155 
C          C       0.67411   0.51779   0.82846 
N          N       0.96244   0.36259   0.51568 
C          C       0.60860   0.50839   0.77726 
C          C       0.02198   0.98280   0.72804 
C          C       0.39518   0.16824   0.87118 
C          C       0.95420   0.29951   0.52966 
C          C       0.41427   0.11635   0.85698 
C          C       0.32605   0.67165   0.94382 
C          C       0.47298   0.12254   0.93983 
N          N       0.38735   0.72503   0.98329 
C          C       0.51405   0.18302   0.53281 
C          C       0.40556   0.79616   0.94158 
C          C       0.49440   0.23532   0.54761 
C          C       0.46681   0.85412   0.50529 
C          C       0.17803   0.14451   0.55581 
C          C       0.48058   0.92371   0.97905 
C          C       0.10860   0.09382   0.59329 
C          C       0.43326   0.93528   0.88714 
C          C       0.09519   0.03687   0.69250 
C          C       0.37366   0.87761   0.81986 
C          C       0.15184   0.03042   0.75207 
C          C       0.35980   0.80870   0.84654 
C          C       0.22187   0.08207   0.71545 
N          N       0.43772   0.00292   0.87647 
C          C       0.11754   0.33240   0.81241 
C          C       0.48345   0.06085   0.94771 
H          H       0.05244   0.38174   0.81862 
H          H       0.97599   0.18842   0.59250 
H          H       0.08205   0.17965   0.50563 
H          H       0.35522   0.49431   0.68494 
H          H       0.39744   0.62222   0.62361 
H          H       0.20311   0.55946   0.86316 
H          H       0.16063   0.43220   0.92722 
H          H       0.64848   0.81447   0.50193 
H          H       0.79361   0.51574   0.92536 
H          H       0.79069   0.76693   0.82165 
H          H       0.91676   0.86590   0.83682 
H          H       0.52279   0.51899   0.55539 
H          H       0.86118   0.00143   0.56939 
H          H       0.61863   0.63702   0.64661 
H          H       0.73520   0.90186   0.55167 
H          H       0.74113   0.31254   0.69608 
H          H       0.53176   0.74058   0.85947 
H          H       0.83781   0.28193   0.67307 
H          H       0.43626   0.62148   0.76384 
H          H       0.49779   0.35626   0.98032 
H          H       0.97574   0.48787   0.96061 
H          H       0.61396   0.37217   0.56890 
H          H       0.87871   0.51755   0.97954 
H          H       0.72431   0.56357   0.78632 
H          H       0.60691   0.54656   0.69438 
H          H       0.01086   0.93458   0.79419 
H          H       0.34931   0.16320   0.80435 
H          H       0.90659   0.25612   0.58691 
H          H       0.38321   0.06995   0.78023 
H          H       0.28931   0.68231   0.87497 
H          H       0.56169   0.18931   0.59406 
H          H       0.52673   0.28286   0.62043 
H          H       0.50407   0.84491   0.57594 
H          H       0.18821   0.18911   0.97750 
H          H       0.52836   0.96938   0.53019 
H          H       0.06374   0.09825   0.54499 
H          H       0.33749   0.88685   0.74529 
H          H       0.14131   0.98485   0.82748 
H          H       0.31257   0.76332   0.79294 
H          H       0.26672   0.07776   0.76424 
H          H       0.15597   0.37150   0.72872 
H          H       0.52884   0.06354   0.51227 
