data_crystal

_cell_length_a    27.18000
_cell_length_b    27.18000
_cell_length_c    8.60000
_cell_angle_alpha 90.00000
_cell_angle_beta  90.00000
_cell_angle_gamma 120.00000

_space_group_name_Hall 'P 1'
_space_group_name_H-M_alt  'P 1'

loop_
_symmetry_equiv_pos_as_xyz
'x,y,z' 

loop_
_atom_site_label
_atom_site_type_symbol
_atom_site_fract_x
_atom_site_fract_y
_atom_site_fract_z
N          N       0.64405   0.48129   0.41069 
C          C       0.35893   0.47279   0.10392 
P          P       0.66624   0.45135   0.04535 
C          C       0.61083   0.76477   0.40663 
N          N       0.71285   0.50298   0.16460 
N          N       0.34899   0.50945   0.03800 
P          P       0.74436   0.56618   0.07925 
N          N       0.64587   0.80666   0.49125 
N          N       0.69190   0.58102   0.05607 
C          C       0.29563   0.50732   0.04217 
P          P       0.63022   0.53012   0.48133 
C          C       0.64284   0.85703   0.00420 
O          O       0.61340   0.56127   0.32695 
C          C       0.29039   0.54977   0.46847 
O          O       0.57581   0.49250   0.11903 
C          C       0.23945   0.54972   0.47153 
O          O       0.77568   0.55683   0.41367 
C          C       0.19235   0.50718   0.04872 
O          O       0.79540   0.61951   0.19785 
C          C       0.19766   0.46446   0.12265 
O          O       0.61093   0.40304   0.16531 
C          C       0.24875   0.46448   0.11962 
O          O       0.70465   0.42547   0.44570 
C          C       0.68408   0.90252   0.08792 
C          C       0.52230   0.48693   0.10060 
C          C       0.68299   0.95277   0.09711 
C          C       0.61437   0.61205   0.35401 
C          C       0.64052   0.95826   0.02283 
C          C       0.83570   0.66707   0.11863 
C          C       0.59895   0.91227   0.44035 
C          C       0.82473   0.55420   0.44228 
C          C       0.60004   0.86220   0.43101 
C          C       0.56730   0.35579   0.09468 
C          C       0.41704   0.20523   0.46946 
C          C       0.69380   0.37266   0.49195 
N          N       0.37295   0.20247   0.40585 
C          C       0.51276   0.52507   0.01723 
C          C       0.32258   0.14929   0.38337 
C          C       0.45966   0.52061   0.01558 
C          C       0.27247   0.14756   0.34198 
C          C       0.41488   0.47755   0.09808 
C          C       0.22198   0.09605   0.33365 
C          C       0.42408   0.43914   0.18086 
C          C       0.22091   0.04542   0.36600 
C          C       0.47735   0.44407   0.18278 
C          C       0.27154   0.04750   0.40390 
C          C       0.65390   0.65456   0.45059 
C          C       0.32163   0.09861   0.41283 
C          C       0.65351   0.70496   0.46891 
C          C       0.16744   0.99076   0.37108 
C          C       0.61351   0.71319   0.39062 
C          C       0.11488   0.98751   0.35739 
C          C       0.57488   0.67136   0.29275 
C          C       0.06496   0.93600   0.37683 
C          C       0.57572   0.62147   0.27366 
C          C       0.06714   0.88707   0.40989 
C          C       0.89217   0.68277   0.13623 
C          C       0.11928   0.89017   0.42063 
C          C       0.93438   0.73267   0.07297 
C          C       0.16878   0.94127   0.40126 
C          C       0.92101   0.76870   0.49271 
N          N       0.01818   0.83471   0.44717 
C          C       0.86438   0.75353   0.47527 
C          C       0.96646   0.82345   0.43750 
C          C       0.82174   0.70279   0.03788 
C          C       0.13372   0.55026   0.47414 
C          C       0.82532   0.51268   0.03641 
C          C       0.08321   0.55104   0.47457 
C          C       0.87459   0.50927   0.05089 
C          C       0.03574   0.50918   0.05228 
C          C       0.92366   0.54747   0.47142 
C          C       0.04008   0.46671   0.12959 
C          C       0.92266   0.58845   0.37841 
C          C       0.09079   0.46595   0.12903 
C          C       0.87367   0.59130   0.36320 
N          N       0.98308   0.50876   0.05200 
C          C       0.65158   0.32465   0.41888 
C          C       0.97667   0.54627   0.47763 
C          C       0.64644   0.27224   0.44753 
C          C       0.13830   0.50771   0.05102 
C          C       0.68440   0.26779   0.04682 
C          C       0.68294   0.05910   0.10343 
C          C       0.72722   0.31600   0.11728 
C          C       0.68419   0.11053   0.09954 
C          C       0.73209   0.36829   0.08923 
C          C       0.64289   0.11578   0.01793 
C          C       0.52862   0.35959   0.49650 
C          C       0.60029   0.06900   0.44203 
C          C       0.47940   0.31066   0.45080 
C          C       0.59905   0.01763   0.44603 
C          C       0.46889   0.25793   0.00364 
N          N       0.64466   0.16851   0.00410 
C          C       0.50754   0.25466   0.10140 
C          C       0.68245   0.21409   0.07065 
C          C       0.55583   0.30321   0.14842 
C          C       0.64050   0.01213   0.02595 
H          H       0.54369   0.67786   0.23054 
H          H       0.02405   0.93395   0.36614 
H          H       0.17039   0.58342   0.41277 
H          H       0.71543   0.05534   0.16767 
H          H       0.75711   0.31272   0.19491 
H          H       0.48403   0.41389   0.24970 
H          H       0.71764   0.14708   0.16060 
H          H       0.76615   0.40624   0.14375 
H          H       0.53692   0.40095   0.45542 
H          H       0.38922   0.40485   0.24483 
H          H       0.87472   0.47671   0.12440 
H          H       0.71565   0.98833   0.16305 
H          H       0.32671   0.58353   0.40748 
H          H       0.01319   0.57924   0.41533 
H          H       0.25218   0.43079   0.17815 
H          H       0.96093   0.61875   0.31662 
H          H       0.08056   0.58474   0.41349 
H          H       0.85329   0.78141   0.41240 
H          H       0.95659   0.85447   0.38855 
H          H       0.77737   0.69101   0.02367 
H          H       0.16133   0.43066   0.18351 
H          H       0.00340   0.43368   0.19125 
H          H       0.49972   0.21336   0.14153 
H          H       0.71365   0.21239   0.14647 
H          H       0.61259   0.23435   0.39222 
H          H       0.54566   0.58910   0.19453 
H          H       0.90346   0.65538   0.20088 
H          H       0.12132   0.85189   0.44463 
H          H       0.71750   0.89871   0.14675 
H          H       0.18286   0.09530   0.30146 
H          H       0.23619   0.58346   0.41270 
H          H       0.78706   0.48277   0.09890 
H          H       0.56719   0.82649   0.36593 
H          H       0.27168   0.00817   0.42692 
H          H       0.68528   0.64813   0.01202 
H          H       0.36084   0.09926   0.44327 
H          H       0.97865   0.74394   0.08607 
H          H       0.20953   0.94286   0.40975 
H          H       0.54750   0.55903   0.45208 
H          H       0.62244   0.32818   0.33889 
H          H       0.87355   0.62336   0.28750 
H          H       0.09344   0.43229   0.19033 
H          H       0.11287   0.02567   0.33123 
H          H       0.45304   0.55097   0.44938 
H          H       0.27270   0.18687   0.31582 
H          H       0.41539   0.16552   0.49962 
H          H       0.56757   0.07270   0.37883 
H          H       0.44918   0.31364   0.37385 
H          H       0.56526   0.98104   0.38598 
H          H       0.58520   0.30013   0.22855 
H          H       0.68451   0.73810   0.04458 
H          H       0.56520   0.91581   0.38257 
H          H       0.57778   0.76822   0.34444 
H          H       0.32466   0.43720   0.16583 
N          N       0.64405   0.48129   0.91069 
C          C       0.35893   0.47279   0.60392 
P          P       0.66624   0.45135   0.54535 
C          C       0.61083   0.76477   0.90663 
N          N       0.71285   0.50298   0.66460 
N          N       0.34899   0.50945   0.53800 
P          P       0.74436   0.56618   0.57925 
N          N       0.64587   0.80666   0.99125 
N          N       0.69190   0.58102   0.55607 
C          C       0.29563   0.50732   0.54217 
P          P       0.63022   0.53012   0.98133 
C          C       0.64284   0.85703   0.50420 
O          O       0.61340   0.56127   0.82695 
C          C       0.29039   0.54977   0.96847 
O          O       0.57581   0.49250   0.61903 
C          C       0.23945   0.54972   0.97153 
O          O       0.77568   0.55683   0.91367 
C          C       0.19235   0.50718   0.54872 
O          O       0.79540   0.61951   0.69785 
C          C       0.19766   0.46446   0.62265 
O          O       0.61093   0.40304   0.66531 
C          C       0.24875   0.46448   0.61962 
O          O       0.70465   0.42547   0.94570 
C          C       0.68408   0.90252   0.58792 
C          C       0.52230   0.48693   0.60060 
C          C       0.68299   0.95277   0.59711 
C          C       0.61437   0.61205   0.85401 
C          C       0.64052   0.95826   0.52283 
C          C       0.83570   0.66707   0.61863 
C          C       0.59895   0.91227   0.94035 
C          C       0.82473   0.55420   0.94228 
C          C       0.60004   0.86220   0.93101 
C          C       0.56730   0.35579   0.59468 
C          C       0.41704   0.20523   0.96946 
C          C       0.69380   0.37266   0.99195 
N          N       0.37295   0.20247   0.90585 
C          C       0.51276   0.52507   0.51723 
C          C       0.32258   0.14929   0.88337 
C          C       0.45966   0.52061   0.51558 
C          C       0.27247   0.14756   0.84198 
C          C       0.41488   0.47755   0.59808 
C          C       0.22198   0.09605   0.83365 
C          C       0.42408   0.43914   0.68086 
C          C       0.22091   0.04542   0.86600 
C          C       0.47735   0.44407   0.68278 
C          C       0.27154   0.04750   0.90390 
C          C       0.65390   0.65456   0.95059 
C          C       0.32163   0.09861   0.91283 
C          C       0.65351   0.70496   0.96891 
C          C       0.16744   0.99076   0.87108 
C          C       0.61351   0.71319   0.89062 
C          C       0.11488   0.98751   0.85739 
C          C       0.57488   0.67136   0.79275 
C          C       0.06496   0.93600   0.87683 
C          C       0.57572   0.62147   0.77366 
C          C       0.06714   0.88707   0.90989 
C          C       0.89217   0.68277   0.63623 
C          C       0.11928   0.89017   0.92063 
C          C       0.93438   0.73267   0.57297 
C          C       0.16878   0.94127   0.90126 
C          C       0.92101   0.76870   0.99271 
N          N       0.01818   0.83471   0.94717 
C          C       0.86438   0.75353   0.97527 
C          C       0.96646   0.82345   0.93750 
C          C       0.82174   0.70279   0.53788 
C          C       0.13372   0.55026   0.97414 
C          C       0.82532   0.51268   0.53641 
C          C       0.08321   0.55104   0.97457 
C          C       0.87459   0.50927   0.55089 
C          C       0.03574   0.50918   0.55228 
C          C       0.92366   0.54747   0.97142 
C          C       0.04008   0.46671   0.62959 
C          C       0.92266   0.58845   0.87841 
C          C       0.09079   0.46595   0.62903 
C          C       0.87367   0.59130   0.86320 
N          N       0.98308   0.50876   0.55200 
C          C       0.65158   0.32465   0.91888 
C          C       0.97667   0.54627   0.97763 
C          C       0.64644   0.27224   0.94753 
C          C       0.13830   0.50771   0.55102 
C          C       0.68440   0.26779   0.54682 
C          C       0.68294   0.05910   0.60343 
C          C       0.72722   0.31600   0.61728 
C          C       0.68419   0.11053   0.59954 
C          C       0.73209   0.36829   0.58923 
C          C       0.64289   0.11578   0.51793 
C          C       0.52862   0.35959   0.99650 
C          C       0.60029   0.06900   0.94203 
C          C       0.47940   0.31066   0.95080 
C          C       0.59905   0.01763   0.94603 
C          C       0.46889   0.25793   0.50364 
N          N       0.64466   0.16851   0.50410 
C          C       0.50754   0.25466   0.60140 
C          C       0.68245   0.21409   0.57065 
C          C       0.55583   0.30321   0.64842 
C          C       0.64050   0.01213   0.52595 
H          H       0.54369   0.67786   0.73054 
H          H       0.02405   0.93395   0.86614 
H          H       0.17039   0.58342   0.91277 
H          H       0.71543   0.05534   0.66767 
H          H       0.75711   0.31272   0.69491 
H          H       0.48403   0.41389   0.74970 
H          H       0.71764   0.14708   0.66060 
H          H       0.76615   0.40624   0.64375 
H          H       0.53692   0.40095   0.95542 
H          H       0.38922   0.40485   0.74483 
H          H       0.87472   0.47671   0.62440 
H          H       0.71565   0.98833   0.66305 
H          H       0.32671   0.58353   0.90748 
H          H       0.01319   0.57924   0.91533 
H          H       0.25218   0.43079   0.67815 
H          H       0.96093   0.61875   0.81662 
H          H       0.08056   0.58474   0.91349 
H          H       0.85329   0.78141   0.91240 
H          H       0.95659   0.85447   0.88855 
H          H       0.77737   0.69101   0.52367 
H          H       0.16133   0.43066   0.68351 
H          H       0.00340   0.43368   0.69125 
H          H       0.49972   0.21336   0.64153 
H          H       0.71365   0.21239   0.64647 
H          H       0.61259   0.23435   0.89222 
H          H       0.54566   0.58910   0.69453 
H          H       0.90346   0.65538   0.70088 
H          H       0.12132   0.85189   0.94463 
H          H       0.71750   0.89871   0.64675 
H          H       0.18286   0.09530   0.80146 
H          H       0.23619   0.58346   0.91270 
H          H       0.78706   0.48277   0.59890 
H          H       0.56719   0.82649   0.86593 
H          H       0.27168   0.00817   0.92692 
H          H       0.68528   0.64813   0.51202 
H          H       0.36084   0.09926   0.94327 
H          H       0.97865   0.74394   0.58607 
H          H       0.20953   0.94286   0.90975 
H          H       0.54750   0.55903   0.95208 
H          H       0.62244   0.32818   0.83889 
H          H       0.87355   0.62336   0.78750 
H          H       0.09344   0.43229   0.69033 
H          H       0.11287   0.02567   0.83123 
H          H       0.45304   0.55097   0.94938 
H          H       0.27270   0.18687   0.81582 
H          H       0.41539   0.16552   0.99962 
H          H       0.56757   0.07270   0.87883 
H          H       0.44918   0.31364   0.87385 
H          H       0.56526   0.98104   0.88598 
H          H       0.58520   0.30013   0.72855 
H          H       0.68451   0.73810   0.54458 
H          H       0.56520   0.91581   0.88257 
H          H       0.57778   0.76822   0.84444 
H          H       0.32466   0.43720   0.66583 
