data_crystal

_cell_length_a    16.50000
_cell_length_b    37.47800
_cell_length_c    7.38400
_cell_angle_alpha 90.00000
_cell_angle_beta  119.41400
_cell_angle_gamma 90.00000

_space_group_name_Hall 'P 1'
_space_group_name_H-M_alt  'P 1'

loop_
_symmetry_equiv_pos_as_xyz
'x,y,z'

loop_
_atom_site_label
_atom_site_type_symbol
_atom_site_fract_x
_atom_site_fract_y
_atom_site_fract_z
C          C       0.54462   0.58516   0.01256
C          C       0.54462   0.41484   0.01256
C          C       0.45538   0.58516   0.48744
C          C       0.45538   0.41484   0.48744
C          C       0.04462   0.08516   0.01256
C          C       0.04462   0.91484   0.01256
C          C       0.95538   0.08516   0.48744
C          C       0.95538   0.91484   0.48744
S          S       0.39920   0.54295   0.46540
S          S       0.39920   0.45705   0.46540
S          S       0.60080   0.54295   0.03460
S          S       0.60080   0.45705   0.03460
S          S       0.89920   0.04295   0.46540
S          S       0.89920   0.95705   0.46540
S          S       0.10080   0.04295   0.03460
S          S       0.10080   0.95705   0.03460
C          C       0.58820   0.61716   0.01661
C          C       0.58820   0.38284   0.01661
C          C       0.41180   0.61716   0.48339
C          C       0.41180   0.38284   0.48339
C          C       0.08820   0.11716   0.01661
C          C       0.08820   0.88284   0.01661
C          C       0.91180   0.11716   0.48339
C          C       0.91180   0.88284   0.48339
H          H       0.59820   0.63716   0.01661
H          H       0.59820   0.36284   0.01661
H          H       0.40180   0.63716   0.48339
H          H       0.40180   0.36284   0.48339
H          H       0.09820   0.13716   0.01661
H          H       0.09820   0.86284   0.01661
H          H       0.90180   0.13716   0.48339
H          H       0.90180   0.86284   0.48339
C          C       0.30291   0.15266   0.06555
C          C       0.30291   0.84734   0.06555
C          C       0.69709   0.15266   0.43446
C          C       0.69709   0.84734   0.43446
C          C       0.80291   0.65266   0.06555
C          C       0.80291   0.34734   0.06555
C          C       0.19709   0.65266   0.43446
C          C       0.19709   0.34734   0.43446
C          C       0.21263   0.15248   0.03609
C          C       0.21263   0.84752   0.03609
C          C       0.78737   0.15248   0.46391
C          C       0.78737   0.84752   0.46391
C          C       0.71263   0.65248   0.03609
C          C       0.71263   0.34752   0.03609
C          C       0.28737   0.65248   0.46391
C          C       0.28737   0.34752   0.46391
C          C       0.16494   0.18506   0.00474
C          C       0.16494   0.81494   0.00474
C          C       0.83506   0.18506   0.49527
C          C       0.83506   0.81494   0.49527
C          C       0.66494   0.68506   0.00474
C          C       0.66494   0.31494   0.00474
C          C       0.33506   0.68506   0.49527
C          C       0.33506   0.31494   0.49527
C          C       0.20698   0.21761   0.00269
C          C       0.20698   0.78239   0.00269
C          C       0.79302   0.21761   0.49731
C          C       0.79302   0.78239   0.49731
C          C       0.70698   0.71761   0.00269
C          C       0.70698   0.28239   0.00269
C          C       0.29302   0.71761   0.49731
C          C       0.29302   0.28239   0.49731
C          C       0.29840   0.21743   0.03145
C          C       0.29840   0.78257   0.03145
C          C       0.70160   0.21743   0.46854
C          C       0.70160   0.78257   0.46854
C          C       0.79840   0.71743   0.03145
C          C       0.79840   0.28257   0.03145
C          C       0.20160   0.71743   0.46854
C          C       0.20160   0.28257   0.46854
C          C       0.34555   0.18468   0.06327
C          C       0.34555   0.81532   0.06327
C          C       0.65445   0.18468   0.43673
C          C       0.65445   0.81532   0.43673
C          C       0.84555   0.68468   0.06327
C          C       0.84555   0.31532   0.06327
C          C       0.15445   0.68468   0.43673
C          C       0.15445   0.31532   0.43673
C          C       0.15922   0.25019   0.47279
C          C       0.15922   0.74981   0.47279
C          C       0.84078   0.25019   0.02721
C          C       0.84078   0.74981   0.02721
C          C       0.65922   0.75019   0.47279
C          C       0.65922   0.24981   0.47279
C          C       0.34078   0.75019   0.02721
C          C       0.34078   0.24981   0.02721
O          O       0.08105   0.25038   0.45187
O          O       0.08105   0.74962   0.45187
O          O       0.91895   0.25038   0.04813
O          O       0.91895   0.74962   0.04813
O          O       0.58105   0.75038   0.45187
O          O       0.58105   0.24962   0.45187
O          O       0.41895   0.75038   0.04813
O          O       0.41895   0.24962   0.04813
H          H       0.34023   0.12779   0.08929
H          H       0.34023   0.87221   0.08929
H          H       0.65977   0.12779   0.41071
H          H       0.65977   0.87221   0.41071
H          H       0.84023   0.62779   0.08929
H          H       0.84023   0.37221   0.08929
H          H       0.15977   0.62779   0.41071
H          H       0.15977   0.37221   0.41071
H          H       0.09489   0.18505   0.48192
H          H       0.09489   0.81495   0.48192
H          H       0.90511   0.18505   0.01808
H          H       0.90511   0.81495   0.01808
H          H       0.59489   0.68505   0.48192
H          H       0.59489   0.31495   0.48192
H          H       0.40511   0.68505   0.01808
H          H       0.40511   0.31495   0.01808
H          H       0.41545   0.18370   0.08536
H          H       0.41545   0.81630   0.08536
H          H       0.58455   0.18370   0.41465
H          H       0.58455   0.81630   0.41465
H          H       0.91545   0.68370   0.08536
H          H       0.91545   0.31630   0.08536
H          H       0.08455   0.68370   0.41465
H          H       0.08455   0.31630   0.41465
N          N       0.67060   0.38104   0.03703
N          N       0.67060   0.61896   0.03703
N          N       0.32940   0.38104   0.46297
N          N       0.32940   0.61896   0.46297
N          N       0.17060   0.88104   0.03703
N          N       0.17060   0.11896   0.03703
N          N       0.82940   0.88104   0.46297
N          N       0.82940   0.11896   0.46297
C          C       0.50000   0.51797   0.00000
C          C       0.50000   0.48203   0.00000
C          C       0.00000   0.01797   0.00000
C          C       0.00000   0.98203   0.00000
C          C       0.54462   0.58516   0.51256
C          C       0.54462   0.41484   0.51256
C          C       0.45538   0.58516   0.98744
C          C       0.45538   0.41484   0.98744
C          C       0.04462   0.08516   0.51256
C          C       0.04462   0.91484   0.51256
C          C       0.95538   0.08516   0.98744
C          C       0.95538   0.91484   0.98744
S          S       0.39920   0.54295   0.96540
S          S       0.39920   0.45705   0.96540
S          S       0.60080   0.54295   0.53460
S          S       0.60080   0.45705   0.53460
S          S       0.89920   0.04295   0.96540
S          S       0.89920   0.95705   0.96540
S          S       0.10080   0.04295   0.53460
S          S       0.10080   0.95705   0.53460
C          C       0.58820   0.61716   0.51661
C          C       0.58820   0.38284   0.51661
C          C       0.41180   0.61716   0.98339
C          C       0.41180   0.38284   0.98339
C          C       0.08820   0.11716   0.51661
C          C       0.08820   0.88284   0.51661
C          C       0.91180   0.11716   0.98339
C          C       0.91180   0.88284   0.98339
H          H       0.59820   0.63716   0.51661
H          H       0.59820   0.36284   0.51661
H          H       0.40180   0.63716   0.98339
H          H       0.40180   0.36284   0.98339
H          H       0.09820   0.13716   0.51661
H          H       0.09820   0.86284   0.51661
H          H       0.90180   0.13716   0.98339
H          H       0.90180   0.86284   0.98339
C          C       0.30291   0.15266   0.56554
C          C       0.30291   0.84734   0.56554
C          C       0.69709   0.15266   0.93445
C          C       0.69709   0.84734   0.93445
C          C       0.80291   0.65266   0.56554
C          C       0.80291   0.34734   0.56554
C          C       0.19709   0.65266   0.93445
C          C       0.19709   0.34734   0.93445
C          C       0.21263   0.15248   0.53609
C          C       0.21263   0.84752   0.53609
C          C       0.78737   0.15248   0.96391
C          C       0.78737   0.84752   0.96391
C          C       0.71263   0.65248   0.53609
C          C       0.71263   0.34752   0.53609
C          C       0.28737   0.65248   0.96391
C          C       0.28737   0.34752   0.96391
C          C       0.16494   0.18506   0.50474
C          C       0.16494   0.81494   0.50474
C          C       0.83506   0.18506   0.99526
C          C       0.83506   0.81494   0.99526
C          C       0.66494   0.68506   0.50474
C          C       0.66494   0.31494   0.50474
C          C       0.33506   0.68506   0.99526
C          C       0.33506   0.31494   0.99526
C          C       0.20698   0.21761   0.50269
C          C       0.20698   0.78239   0.50269
C          C       0.79302   0.21761   0.99731
C          C       0.79302   0.78239   0.99731
C          C       0.70698   0.71761   0.50269
C          C       0.70698   0.28239   0.50269
C          C       0.29302   0.71761   0.99731
C          C       0.29302   0.28239   0.99731
C          C       0.29840   0.21743   0.53146
C          C       0.29840   0.78257   0.53146
C          C       0.70160   0.21743   0.96854
C          C       0.70160   0.78257   0.96854
C          C       0.79840   0.71743   0.53146
C          C       0.79840   0.28257   0.53146
C          C       0.20160   0.71743   0.96854
C          C       0.20160   0.28257   0.96854
C          C       0.34555   0.18468   0.56327
C          C       0.34555   0.81532   0.56327
C          C       0.65445   0.18468   0.93673
C          C       0.65445   0.81532   0.93673
C          C       0.84555   0.68468   0.56327
C          C       0.84555   0.31532   0.56327
C          C       0.15445   0.68468   0.93673
C          C       0.15445   0.31532   0.93673
C          C       0.15922   0.25019   0.97279
C          C       0.15922   0.74981   0.97279
C          C       0.84078   0.25019   0.52721
C          C       0.84078   0.74981   0.52721
C          C       0.65922   0.75019   0.97279
C          C       0.65922   0.24981   0.97279
C          C       0.34078   0.75019   0.52721
C          C       0.34078   0.24981   0.52721
O          O       0.08105   0.25038   0.95187
O          O       0.08105   0.74962   0.95187
O          O       0.91895   0.25038   0.54813
O          O       0.91895   0.74962   0.54813
O          O       0.58105   0.75038   0.95187
O          O       0.58105   0.24962   0.95187
O          O       0.41895   0.75038   0.54813
O          O       0.41895   0.24962   0.54813
H          H       0.34023   0.12779   0.58929
H          H       0.34023   0.87221   0.58929
H          H       0.65977   0.12779   0.91071
H          H       0.65977   0.87221   0.91071
H          H       0.84023   0.62779   0.58929
H          H       0.84023   0.37221   0.58929
H          H       0.15977   0.62779   0.91071
H          H       0.15977   0.37221   0.91071
H          H       0.09489   0.18505   0.98193
H          H       0.09489   0.81495   0.98193
H          H       0.90511   0.18505   0.51808
H          H       0.90511   0.81495   0.51808
H          H       0.59489   0.68505   0.98193
H          H       0.59489   0.31495   0.98193
H          H       0.40511   0.68505   0.51808
H          H       0.40511   0.31495   0.51808
H          H       0.41545   0.18370   0.58535
H          H       0.41545   0.81630   0.58535
H          H       0.58455   0.18370   0.91465
H          H       0.58455   0.81630   0.91465
H          H       0.91545   0.68370   0.58535
H          H       0.91545   0.31630   0.58535
H          H       0.08455   0.68370   0.91465
H          H       0.08455   0.31630   0.91465
N          N       0.67060   0.38104   0.53703
N          N       0.67060   0.61896   0.53703
N          N       0.32940   0.38104   0.96297
N          N       0.32940   0.61896   0.96297
N          N       0.17060   0.88104   0.53703
N          N       0.17060   0.11896   0.53703
N          N       0.82940   0.88104   0.96297
N          N       0.82940   0.11896   0.96297
C          C       0.50000   0.51797   0.50000
C          C       0.50000   0.48203   0.50000
C          C       0.00000   0.01797   0.50000
C          C       0.00000   0.98203   0.50000
