data_crystal

_cell_length_a    12.52000
_cell_length_b    12.93000
_cell_length_c    12.39000
_cell_angle_alpha 90.00000
_cell_angle_beta  90.00000
_cell_angle_gamma 90.00000

_space_group_name_Hall 'P 1'
_space_group_name_H-M_alt  'P 1'

loop_
_symmetry_equiv_pos_as_xyz
'x,y,z'

loop_
_atom_site_label
_atom_site_type_symbol
_atom_site_fract_x
_atom_site_fract_y
_atom_site_fract_z
B          B       0.89045   0.91853   0.87506
B          B       0.90990   0.12779   0.09723
B          B       0.10142   0.91264   0.09714
B          B       0.11213   0.13952   0.87322
B          B       0.38898   0.41124   0.37307
B          B       0.62244   0.41358   0.59856
B          B       0.38450   0.63818   0.59895
B          B       0.61776   0.63464   0.37215
C          C       0.83419   0.20163   0.16984
C          C       0.69927   0.32951   0.29702
C          C       0.17672   0.84100   0.16977
C          C       0.30981   0.71215   0.29353
C          C       0.18385   0.21239   0.80087
C          C       0.31489   0.33614   0.67491
C          C       0.81969   0.84401   0.80248
C          C       0.69099   0.71709   0.67539
C          C       0.82381   0.21185   0.80024
C          C       0.69730   0.34093   0.67064
C          C       0.19444   0.20728   0.17100
C          C       0.31641   0.33796   0.30085
C          C       0.18038   0.84585   0.79896
C          C       0.30844   0.71172   0.67148
C          C       0.81772   0.83541   0.17507
C          C       0.69029   0.70641   0.29958
C          C       0.86544   0.76580   0.73719
C          C       0.80239   0.70260   0.67409
C          C       0.64353   0.79481   0.73977
C          C       0.70806   0.85716   0.80230
C          C       0.74255   0.27552   0.84468
C          C       0.68047   0.33910   0.77974
C          C       0.77913   0.27647   0.62798
C          C       0.84220   0.21250   0.69145
C          C       0.24284   0.26917   0.34416
C          C       0.18208   0.20426   0.28055
C          C       0.26735   0.27541   0.12595
C          C       0.32720   0.33986   0.19100
C          C       0.22804   0.66808   0.23377
C          C       0.16277   0.73256   0.17288
C          C       0.25950   0.88328   0.22971
C          C       0.32577   0.82020   0.29106
C          C       0.72287   0.20268   0.15646
C          C       0.65536   0.26558   0.21890
C          C       0.81026   0.32937   0.31219
C          C       0.87626   0.26585   0.24899
C          C       0.20331   0.34772   0.66951
C          C       0.13909   0.28618   0.73221
C          C       0.29571   0.20199   0.80466
C          C       0.36141   0.26285   0.74279
C          C       0.27167   0.80900   0.63473
C          C       0.20841   0.87604   0.69711
C          C       0.21593   0.74892   0.83733
C          C       0.27917   0.68313   0.77363
C          C       0.76895   0.66342   0.23199
C          C       0.83224   0.72650   0.17005
C          C       0.73976   0.88019   0.24221
C          C       0.67719   0.81560   0.30333
H          H       0.95203   0.75426   0.73588
H          H       0.83944   0.64237   0.62372
H          H       0.55695   0.80598   0.74024
H          H       0.67080   0.91750   0.85241
H          H       0.72894   0.27504   0.92934
H          H       0.61776   0.38913   0.81471
H          H       0.79346   0.27636   0.54338
H          H       0.90532   0.16281   0.65691
H          H       0.23311   0.26656   0.42929
H          H       0.12563   0.15091   0.31558
H          H       0.27672   0.27715   0.04080
H          H       0.38340   0.39334   0.15568
H          H       0.21658   0.58392   0.23489
H          H       0.09871   0.69805   0.12710
H          H       0.27195   0.96734   0.22851
H          H       0.39045   0.85426   0.33627
H          H       0.68842   0.15336   0.09537
H          H       0.56900   0.26514   0.20807
H          H       0.84438   0.37873   0.37334
H          H       0.96255   0.26661   0.26062
H          H       0.16725   0.40471   0.61652
H          H       0.05238   0.29583   0.72823
H          H       0.33202   0.14475   0.85729
H          H       0.44813   0.25375   0.74617
H          H       0.29243   0.83245   0.55515
H          H       0.18113   0.95162   0.66778
H          H       0.19490   0.72591   0.91690
H          H       0.30627   0.60769   0.80371
H          H       0.78034   0.57872   0.22729
H          H       0.89282   0.69160   0.11790
H          H       0.72906   0.96487   0.24644
H          H       0.61644   0.85088   0.35521
O          O       0.90958   0.01889   0.13785
O          O       0.90554   0.01930   0.83455
O          O       0.86284   0.13943   0.99290
O          O       0.84813   0.91831   0.98529
O          O       0.12411   0.01400   0.13644
O          O       0.13908   0.92120   0.99220
O          O       0.12133   0.02940   0.83336
O          O       0.15421   0.14315   0.98328
O          O       0.98154   0.88197   0.87339
O          O       0.99910   0.17630   0.87215
O          O       0.99829   0.16764   0.09842
O          O       0.99089   0.87188   0.09802
O          O       0.38553   0.52950   0.63982
O          O       0.66193   0.41066   0.48831
O          O       0.51095   0.37265   0.60176
O          O       0.50194   0.36992   0.36936
O          O       0.34959   0.41147   0.48305
O          O       0.38603   0.51958   0.33098
O          O       0.62094   0.52282   0.64017
O          O       0.49577   0.67889   0.60135
O          O       0.34486   0.63961   0.48858
O          O       0.50515   0.67595   0.37160
O          O       0.62113   0.52490   0.33102
O          O       0.65817   0.63710   0.48252
P          P       0.11490   0.12538   0.09099
P          P       0.89670   0.91480   0.09340
P          P       0.90752   0.13187   0.87961
P          P       0.09530   0.92671   0.87890
P          P       0.61596   0.41326   0.37576
P          P       0.39107   0.63238   0.37546
P          P       0.61180   0.63496   0.59548
P          P       0.39539   0.41660   0.59573
