data_crystal

_cell_length_a    15.26600
_cell_length_b    15.53100
_cell_length_c    14.94400
_cell_angle_alpha 90.00000
_cell_angle_beta  90.00000
_cell_angle_gamma 90.00000

_space_group_name_Hall 'P 1'
_space_group_name_H-M_alt  'P 1'

loop_
_symmetry_equiv_pos_as_xyz
'x,y,z'

loop_
_atom_site_label
_atom_site_type_symbol
_atom_site_fract_x
_atom_site_fract_y
_atom_site_fract_z
B          B       0.40996   0.58859   0.59171
B          B       0.59006   0.41143   0.59171
B          B       0.59006   0.58859   0.40834
B          B       0.40996   0.41143   0.40834
B          B       0.09010   0.91148   0.09167
B          B       0.90991   0.08853   0.09167
B          B       0.90991   0.91148   0.90838
B          B       0.09010   0.08853   0.90838
C          C       0.35336   0.64556   0.66316
C          C       0.64665   0.35445   0.66316
C          C       0.64665   0.64556   0.33690
C          C       0.35336   0.35445   0.33690
C          C       0.28583   0.70461   0.63980
C          C       0.71418   0.29540   0.63980
C          C       0.71418   0.70461   0.36025
C          C       0.28583   0.29540   0.36025
C          C       0.23964   0.75480   0.70439
C          C       0.76037   0.24521   0.70439
C          C       0.76037   0.75480   0.29567
C          C       0.23964   0.24521   0.29567
C          C       0.25960   0.74611   0.79674
C          C       0.74041   0.25390   0.79674
C          C       0.74041   0.74611   0.20331
C          C       0.25960   0.25390   0.20331
C          C       0.32569   0.68664   0.82110
C          C       0.67432   0.31337   0.82110
C          C       0.67432   0.68664   0.17895
C          C       0.32569   0.31337   0.17895
C          C       0.37091   0.63780   0.75599
C          C       0.62910   0.36221   0.75599
C          C       0.62910   0.63780   0.24406
C          C       0.37091   0.36221   0.24406
C          C       0.21339   0.79632   0.86133
C          C       0.78662   0.20369   0.86133
C          C       0.78662   0.79632   0.13873
C          C       0.21339   0.20369   0.13873
C          C       0.14569   0.85551   0.83813
C          C       0.85432   0.14450   0.83813
C          C       0.85432   0.85551   0.16192
C          C       0.14569   0.14450   0.16192
C          C       0.12833   0.86313   0.74500
C          C       0.87168   0.13688   0.74500
C          C       0.87168   0.86313   0.25505
C          C       0.12833   0.13688   0.25505
C          C       0.17362   0.81423   0.68000
C          C       0.82639   0.18578   0.68000
C          C       0.82639   0.81423   0.32006
C          C       0.17362   0.18578   0.32006
C          C       0.14696   0.85475   0.16309
C          C       0.85305   0.14526   0.16309
C          C       0.85305   0.85475   0.83696
C          C       0.14696   0.14526   0.83696
C          C       0.20493   0.78657   0.13976
C          C       0.79508   0.21344   0.13976
C          C       0.79508   0.78657   0.86030
C          C       0.20493   0.21344   0.86030
C          C       0.25450   0.73963   0.20436
C          C       0.74551   0.26038   0.20436
C          C       0.74551   0.73963   0.79569
C          C       0.25450   0.26038   0.79569
C          C       0.24632   0.75956   0.29671
C          C       0.75369   0.24045   0.29671
C          C       0.75369   0.75956   0.70335
C          C       0.24632   0.24045   0.70335
C          C       0.18800   0.82644   0.32104
C          C       0.81201   0.17357   0.32104
C          C       0.81201   0.82644   0.67902
C          C       0.18800   0.17357   0.67902
C          C       0.13972   0.87235   0.25591
C          C       0.86029   0.12766   0.25591
C          C       0.86029   0.87235   0.74414
C          C       0.13972   0.12766   0.74414
C          C       0.29591   0.71260   0.36130
C          C       0.70410   0.28741   0.36130
C          C       0.70410   0.71260   0.63875
C          C       0.29591   0.28741   0.63875
C          C       0.35402   0.64425   0.33814
C          C       0.64599   0.35576   0.33814
C          C       0.64599   0.64425   0.66192
C          C       0.35402   0.35576   0.66192
C          C       0.36111   0.62683   0.24502
C          C       0.63890   0.37318   0.24502
C          C       0.63890   0.62683   0.75503
C          C       0.36111   0.37318   0.75503
C          C       0.31278   0.67281   0.18001
C          C       0.68723   0.32720   0.18001
C          C       0.68723   0.67281   0.82004
C          C       0.31278   0.32720   0.82004
H          H       0.26942   0.71131   0.57431
H          H       0.73059   0.28870   0.57431
H          H       0.73059   0.71131   0.42574
H          H       0.26942   0.28870   0.42574
H          H       0.34167   0.67831   0.88706
H          H       0.65834   0.32170   0.88706
H          H       0.65834   0.67831   0.11300
H          H       0.34167   0.32170   0.11300
H          H       0.41809   0.59578   0.77729
H          H       0.58193   0.40424   0.77729
H          H       0.58193   0.59578   0.22276
H          H       0.41809   0.40424   0.22276
H          H       0.23029   0.78921   0.92671
H          H       0.76972   0.21080   0.92671
H          H       0.76972   0.78921   0.07334
H          H       0.23029   0.21080   0.07334
H          H       0.08130   0.90496   0.72268
H          H       0.91871   0.09505   0.72268
H          H       0.91871   0.90496   0.27737
H          H       0.08130   0.09505   0.27737
H          H       0.15773   0.82250   0.61401
H          H       0.84228   0.17751   0.61401
H          H       0.84228   0.82250   0.38604
H          H       0.15773   0.17751   0.38604
H          H       0.21115   0.77016   0.07428
H          H       0.78886   0.22985   0.07428
H          H       0.78886   0.77016   0.92577
H          H       0.21115   0.22985   0.92577
H          H       0.18009   0.84246   0.38698
H          H       0.81992   0.15755   0.38698
H          H       0.81992   0.84246   0.61307
H          H       0.18009   0.15755   0.61307
H          H       0.09843   0.91997   0.27721
H          H       0.90158   0.08004   0.27721
H          H       0.90158   0.91997   0.72284
H          H       0.09843   0.08004   0.72284
H          H       0.28928   0.72950   0.42667
H          H       0.71073   0.27051   0.42667
H          H       0.71073   0.72950   0.57338
H          H       0.28928   0.27051   0.57338
H          H       0.40221   0.57934   0.22271
H          H       0.59781   0.42068   0.22271
H          H       0.59781   0.57934   0.77734
H          H       0.40221   0.42068   0.77734
H          H       0.32063   0.65687   0.11404
H          H       0.67938   0.34314   0.11404
H          H       0.67938   0.65687   0.88602
H          H       0.32063   0.34314   0.88602
O          O       0.38467   0.61349   0.50094
O          O       0.61535   0.38652   0.50094
O          O       0.61535   0.61349   0.49912
O          O       0.38467   0.38652   0.49912
O          O       0.50038   0.61235   0.38542
O          O       0.49964   0.38766   0.38542
O          O       0.49964   0.61235   0.61463
O          O       0.50038   0.38766   0.61463
O          O       0.38535   0.49939   0.38541
O          O       0.61467   0.50063   0.38541
O          O       0.61467   0.49939   0.61464
O          O       0.38535   0.50063   0.61464
O          O       0.00057   0.11236   0.88549
O          O       0.99944   0.88765   0.88549
O          O       0.99944   0.11236   0.11457
O          O       0.00057   0.88765   0.11457
O          O       0.88537   0.99959   0.88541
O          O       0.11464   0.00042   0.88541
O          O       0.11464   0.99959   0.11465
O          O       0.88537   0.00042   0.11465
O          O       0.11536   0.88655   0.00090
O          O       0.88465   0.11346   0.00090
O          O       0.88465   0.88655   0.99915
O          O       0.11536   0.11346   0.99915
P          P       0.08871   0.91284   0.91048
P          P       0.91130   0.08717   0.91048
P          P       0.91130   0.91284   0.08957
P          P       0.08871   0.08717   0.08957
P          P       0.41125   0.58713   0.41046
P          P       0.58877   0.41289   0.41046
P          P       0.58877   0.58713   0.58959
P          P       0.41125   0.41289   0.58959
