data_crystal

_cell_length_a    18.55600
_cell_length_b    19.47200
_cell_length_c    17.75400
_cell_angle_alpha 90.00000
_cell_angle_beta  90.00000
_cell_angle_gamma 90.00000

_symmetry_space_group_name_Hall 'P 1'
_symmetry_space_group_name_H-M  'P 1'

loop_
_symmetry_equiv_pos_as_xyz
 'x,y,z'

loop_
_atom_site_label
_atom_site_type_symbol
_atom_site_fract_x
_atom_site_fract_y
_atom_site_fract_z
B          B       0.57713   0.57387   0.42001
B          B       0.42289   0.42615   0.42001
B          B       0.42289   0.57387   0.58001
B          B       0.57713   0.42615   0.58001
B          B       0.92323   0.92609   0.91971
B          B       0.07678   0.07393   0.91971
B          B       0.07678   0.92609   0.08031
B          B       0.92323   0.07393   0.08031
C          C       0.68052   0.74560   0.66558
C          C       0.31950   0.25443   0.66558
C          C       0.31950   0.74560   0.33444
C          C       0.68052   0.25443   0.33444
C          C       0.72645   0.72624   0.72751
C          C       0.27356   0.27379   0.72751
C          C       0.27356   0.72624   0.27252
C          C       0.72645   0.27379   0.27252
C          C       0.71910   0.65335   0.73879
C          C       0.28091   0.34668   0.73879
C          C       0.28091   0.65335   0.26124
C          C       0.71910   0.34668   0.26124
C          C       0.67390   0.60747   0.69529
C          C       0.32612   0.39256   0.69529
C          C       0.32612   0.60747   0.30474
C          C       0.67390   0.39256   0.30474
C          C       0.62904   0.62705   0.63309
C          C       0.37098   0.37298   0.63309
C          C       0.37098   0.62705   0.36693
C          C       0.62904   0.37298   0.36693
C          C       0.63528   0.69978   0.62192
C          C       0.36474   0.30025   0.62192
C          C       0.36474   0.69978   0.37810
C          C       0.63528   0.30025   0.37810
C          C       0.82608   0.89218   0.80454
C          C       0.17393   0.10784   0.80454
C          C       0.17393   0.89218   0.19548
C          C       0.82608   0.10784   0.19548
C          C       0.87071   0.87256   0.86678
C          C       0.12930   0.12746   0.86678
C          C       0.12930   0.87256   0.13324
C          C       0.87071   0.12746   0.13324
C          C       0.86442   0.79996   0.87816
C          C       0.13559   0.20007   0.87816
C          C       0.13559   0.79996   0.12186
C          C       0.86442   0.20007   0.12186
C          C       0.81921   0.75409   0.83453
C          C       0.18080   0.24594   0.83453
C          C       0.18080   0.75409   0.16549
C          C       0.81921   0.24594   0.16549
C          C       0.77341   0.77344   0.77246
C          C       0.22660   0.22659   0.77246
C          C       0.22660   0.77344   0.22757
C          C       0.77341   0.22659   0.22757
C          C       0.78088   0.84631   0.76102
C          C       0.21913   0.15371   0.76102
C          C       0.21913   0.84631   0.23901
C          C       0.78088   0.15371   0.23901
C          C       0.83363   0.24590   0.81912
C          C       0.16638   0.75413   0.81912
C          C       0.16638   0.24590   0.18090
C          C       0.83363   0.75413   0.18090
C          C       0.77325   0.22620   0.77285
C          C       0.22676   0.77383   0.77285
C          C       0.22676   0.22620   0.22718
C          C       0.77325   0.77383   0.22718
C          C       0.76505   0.15284   0.77832
C          C       0.23496   0.84718   0.77832
C          C       0.23496   0.15284   0.22170
C          C       0.76505   0.84718   0.22170
C          C       0.80968   0.10690   0.82239
C          C       0.19033   0.89312   0.82239
C          C       0.19033   0.10690   0.17763
C          C       0.80968   0.89312   0.17763
C          C       0.87006   0.12689   0.86781
C          C       0.12995   0.87313   0.86781
C          C       0.12995   0.12689   0.13221
C          C       0.87006   0.87313   0.13221
C          C       0.87843   0.20002   0.86322
C          C       0.12158   0.80001   0.86322
C          C       0.12158   0.20002   0.13680
C          C       0.87843   0.80001   0.13680
C          C       0.69065   0.39273   0.67760
C          C       0.30937   0.60730   0.67760
C          C       0.30937   0.39273   0.32243
C          C       0.69065   0.60730   0.32243
C          C       0.63026   0.37270   0.63236
C          C       0.36976   0.62733   0.63236
C          C       0.36976   0.37270   0.36766
C          C       0.63026   0.62733   0.36766
C          C       0.62171   0.29969   0.63698
C          C       0.37831   0.70034   0.63698
C          C       0.37831   0.29969   0.36304
C          C       0.62171   0.70034   0.36304
C          C       0.66648   0.25376   0.68107
C          C       0.33354   0.74627   0.68107
C          C       0.33354   0.25376   0.31896
C          C       0.66648   0.74627   0.31896
C          C       0.72696   0.27347   0.72723
C          C       0.27305   0.72656   0.72723
C          C       0.27305   0.27347   0.27280
C          C       0.72696   0.72656   0.27280
C          C       0.73529   0.34682   0.72167
C          C       0.26472   0.65321   0.72167
C          C       0.26472   0.34682   0.27836
C          C       0.73529   0.65321   0.27836
H          H       0.60559   0.72129   0.57947
H          H       0.39443   0.27874   0.57947
H          H       0.39443   0.72129   0.42055
H          H       0.60559   0.27874   0.42055
H          H       0.67907   0.79608   0.65028
H          H       0.32095   0.20395   0.65028
H          H       0.32095   0.79608   0.34974
H          H       0.67907   0.20395   0.34974
H          H       0.74797   0.63113   0.78119
H          H       0.25204   0.36890   0.78119
H          H       0.25204   0.63113   0.21883
H          H       0.74797   0.36890   0.21883
H          H       0.67400   0.55707   0.71087
H          H       0.32602   0.44295   0.71087
H          H       0.32602   0.55707   0.28916
H          H       0.67400   0.44295   0.28916
H          H       0.75214   0.86852   0.71851
H          H       0.24787   0.13150   0.71851
H          H       0.24787   0.86852   0.28152
H          H       0.75214   0.13150   0.28152
H          H       0.82634   0.94258   0.78918
H          H       0.17367   0.05744   0.78918
H          H       0.17367   0.94258   0.21084
H          H       0.82634   0.05744   0.21084
H          H       0.89414   0.77890   0.92079
H          H       0.10587   0.22113   0.92079
H          H       0.10587   0.77890   0.07923
H          H       0.89414   0.22113   0.07923
H          H       0.82056   0.70364   0.84997
H          H       0.17945   0.29639   0.84997
H          H       0.17945   0.70364   0.15005
H          H       0.82056   0.29639   0.15005
H          H       0.91944   0.22181   0.89345
H          H       0.08057   0.77822   0.89345
H          H       0.08057   0.22181   0.10657
H          H       0.91944   0.77822   0.10657
H          H       0.84682   0.29671   0.82177
H          H       0.15319   0.70332   0.82177
H          H       0.15319   0.29671   0.17825
H          H       0.84682   0.70332   0.17825
H          H       0.72417   0.13029   0.74889
H          H       0.27584   0.86973   0.74889
H          H       0.27584   0.13029   0.25114
H          H       0.72417   0.86973   0.25114
H          H       0.79631   0.05615   0.82109
H          H       0.20370   0.94387   0.82109
H          H       0.20370   0.05615   0.17893
H          H       0.79631   0.94387   0.17893
H          H       0.77624   0.36937   0.75098
H          H       0.22377   0.63066   0.75098
H          H       0.22377   0.36937   0.24905
H          H       0.77624   0.63066   0.24905
H          H       0.70379   0.44351   0.67853
H          H       0.29622   0.55651   0.67853
H          H       0.29622   0.44351   0.32150
H          H       0.70379   0.55651   0.32150
H          H       0.58056   0.27834   0.60668
H          H       0.41946   0.72169   0.60668
H          H       0.41946   0.27834   0.39334
H          H       0.58056   0.72169   0.39334
H          H       0.65319   0.20298   0.67850
H          H       0.34683   0.79705   0.67850
H          H       0.34683   0.20298   0.32153
H          H       0.65319   0.79705   0.32153
O          O       0.50062   0.40831   0.59967
O          O       0.49940   0.59172   0.59967
O          O       0.49940   0.40831   0.40035
O          O       0.50062   0.59172   0.40035
O          O       0.59545   0.50051   0.40026
O          O       0.40457   0.49951   0.40026
O          O       0.40457   0.50051   0.59976
O          O       0.59545   0.49951   0.59976
O          O       0.59555   0.59120   0.49987
O          O       0.40447   0.40883   0.49987
O          O       0.40447   0.59120   0.50015
O          O       0.59555   0.40883   0.50015
O          O       0.00022   0.90829   0.09963
O          O       0.99980   0.09173   0.09963
O          O       0.99980   0.90829   0.90039
O          O       0.00022   0.09173   0.90039
O          O       0.90459   0.99944   0.90025
O          O       0.09542   0.00059   0.90025
O          O       0.09542   0.99944   0.09977
O          O       0.90459   0.00059   0.09977
O          O       0.90445   0.09115   0.00047
O          O       0.09556   0.90887   0.00047
O          O       0.09556   0.09115   0.99955
O          O       0.90445   0.90887   0.99955
P          P       0.57612   0.42697   0.42020
P          P       0.42390   0.57305   0.42020
P          P       0.42390   0.42697   0.57982
P          P       0.57612   0.57305   0.57982
P          P       0.92358   0.92704   0.07951
P          P       0.07643   0.07298   0.07951
P          P       0.07643   0.92704   0.92051
P          P       0.92358   0.07298   0.92051
