data_crystal

_cell_length_a    13.74900
_cell_length_b    12.94200
_cell_length_c    12.31700
_cell_angle_alpha 90.00000
_cell_angle_beta  90.00000
_cell_angle_gamma 90.00000

_space_group_name_Hall 'P 1'
_space_group_name_H-M_alt  'P 1'

loop_
_symmetry_equiv_pos_as_xyz
'x,y,z'

loop_
_atom_site_label
_atom_site_type_symbol
_atom_site_fract_x
_atom_site_fract_y
_atom_site_fract_z
B          B       0.60200   0.60850   0.38400
B          B       0.39807   0.39156   0.38400
B          B       0.39807   0.60850   0.61603
B          B       0.60200   0.39156   0.61603
B          B       0.89774   0.88977   0.88653
B          B       0.10233   0.11029   0.88653
B          B       0.10233   0.88977   0.11350
B          B       0.89774   0.11029   0.11350
C          C       0.60674   0.85729   0.38225
C          C       0.39333   0.14277   0.38225
C          C       0.39333   0.85729   0.61778
C          C       0.60674   0.14277   0.61778
C          C       0.82107   0.81974   0.18626
C          C       0.17899   0.18032   0.18626
C          C       0.17899   0.81974   0.81378
C          C       0.82107   0.18032   0.81378
C          C       0.67748   0.68613   0.31306
C          C       0.32258   0.31393   0.31306
C          C       0.32258   0.68613   0.68697
C          C       0.67748   0.31393   0.68697
C          C       0.75245   0.64694   0.24369
C          C       0.24762   0.35312   0.24369
C          C       0.24762   0.64694   0.75634
C          C       0.75245   0.35312   0.75634
C          C       0.82012   0.70960   0.18416
C          C       0.17994   0.29046   0.18416
C          C       0.17994   0.70960   0.81588
C          C       0.82012   0.29046   0.81588
C          C       0.74618   0.85924   0.25526
C          C       0.25389   0.14082   0.25526
C          C       0.25389   0.85924   0.74477
C          C       0.74618   0.14082   0.74477
C          C       0.67755   0.79748   0.31596
C          C       0.32251   0.20258   0.31596
C          C       0.32251   0.79748   0.68407
C          C       0.67755   0.20258   0.68407
C          C       0.89180   0.87462   0.63140
C          C       0.10827   0.12544   0.63140
C          C       0.10827   0.87462   0.36863
C          C       0.89180   0.12544   0.36863
C          C       0.67985   0.68298   0.68270
C          C       0.32021   0.31708   0.68270
C          C       0.32021   0.68298   0.31733
C          C       0.67985   0.31708   0.31733
C          C       0.82194   0.81623   0.81146
C          C       0.17812   0.18383   0.81146
C          C       0.17812   0.81623   0.18858
C          C       0.82194   0.18383   0.18858
C          C       0.74929   0.75060   0.85845
C          C       0.25078   0.24947   0.85845
C          C       0.25078   0.75060   0.14158
C          C       0.74929   0.24947   0.14158
C          C       0.68248   0.68784   0.79811
C          C       0.31758   0.31222   0.79811
C          C       0.31758   0.68784   0.20193
C          C       0.68248   0.31222   0.20193
C          C       0.75252   0.74848   0.63543
C          C       0.24755   0.25159   0.63543
C          C       0.24755   0.74848   0.36460
C          C       0.75252   0.25159   0.36460
C          C       0.82060   0.81211   0.69477
C          C       0.17946   0.18795   0.69477
C          C       0.17946   0.81211   0.30526
C          C       0.82060   0.18795   0.30526
H          H       0.75940   0.56879   0.23539
H          H       0.24067   0.43128   0.23539
H          H       0.24067   0.56879   0.76464
H          H       0.75940   0.43128   0.76464
H          H       0.74037   0.93779   0.26189
H          H       0.25970   0.06227   0.26189
H          H       0.25970   0.93779   0.73814
H          H       0.74037   0.06227   0.73814
H          H       0.74332   0.74734   0.94096
H          H       0.25675   0.25273   0.94096
H          H       0.25675   0.74734   0.05907
H          H       0.74332   0.25273   0.05907
H          H       0.75708   0.75002   0.55272
H          H       0.24299   0.25005   0.55272
H          H       0.24299   0.75002   0.44731
H          H       0.75708   0.25005   0.44731
H          H       0.87049   0.67233   0.13715
H          H       0.12958   0.32773   0.13715
H          H       0.12958   0.67233   0.86288
H          H       0.87049   0.32773   0.86288
H          H       0.63397   0.64404   0.84117
H          H       0.36609   0.35602   0.84117
H          H       0.36609   0.64404   0.15887
H          H       0.63397   0.35602   0.15887
H          H       0.55634   0.80917   0.42711
H          H       0.44373   0.19089   0.42711
H          H       0.44373   0.80917   0.57292
H          H       0.55634   0.19089   0.57292
H          H       0.56384   0.90759   0.32961
H          H       0.43623   0.09248   0.32961
H          H       0.43623   0.90759   0.67042
H          H       0.56384   0.09248   0.67042
H          H       0.64563   0.90502   0.44108
H          H       0.35443   0.09505   0.44108
H          H       0.35443   0.90502   0.55895
H          H       0.64563   0.09505   0.55895
H          H       0.88222   0.86686   0.54377
H          H       0.11785   0.13320   0.54377
H          H       0.11785   0.86686   0.45626
H          H       0.88222   0.13320   0.45626
H          H       0.96572   0.84994   0.65021
H          H       0.03434   0.15012   0.65021
H          H       0.03434   0.84994   0.34982
H          H       0.96572   0.15012   0.34982
H          H       0.88418   0.95637   0.65075
H          H       0.11589   0.04369   0.65075
H          H       0.11589   0.95637   0.34928
H          H       0.88418   0.04369   0.34928
O          O       0.37410   0.63385   0.50251
O          O       0.62596   0.36621   0.50251
O          O       0.62596   0.63385   0.49753
O          O       0.37410   0.36621   0.49753
O          O       0.49982   0.63571   0.35442
O          O       0.50024   0.36435   0.35442
O          O       0.50024   0.63571   0.64561
O          O       0.49982   0.36435   0.64561
O          O       0.62835   0.50016   0.35712
O          O       0.37171   0.49990   0.35712
O          O       0.37171   0.50016   0.64291
O          O       0.62835   0.49990   0.64291
O          O       0.99969   0.13825   0.14270
O          O       0.00038   0.86181   0.14270
O          O       0.00038   0.13825   0.85733
O          O       0.99969   0.86181   0.85733
O          O       0.12709   0.13490   0.00040
O          O       0.87298   0.86516   0.00040
O          O       0.87298   0.13490   0.99963
O          O       0.12709   0.86516   0.99963
O          O       0.87311   0.00222   0.14172
O          O       0.12696   0.99784   0.14172
O          O       0.12696   0.00222   0.85831
O          O       0.87311   0.99784   0.85831
P          P       0.89899   0.89354   0.11326
P          P       0.10108   0.10653   0.11326
P          P       0.10108   0.89354   0.88677
P          P       0.89899   0.10653   0.88677
P          P       0.60165   0.60749   0.61186
P          P       0.39842   0.39257   0.61186
P          P       0.39842   0.60749   0.38817
P          P       0.60165   0.39257   0.38817
