data_crystal

_cell_length_a    12.33700
_cell_length_b    12.72300
_cell_length_c    13.11800
_cell_angle_alpha 90.00000
_cell_angle_beta  90.00000
_cell_angle_gamma 90.00000

_space_group_name_Hall 'P 1'
_space_group_name_H-M_alt  'P 1'

loop_
_symmetry_equiv_pos_as_xyz
'x,y,z'

loop_
_atom_site_label
_atom_site_type_symbol
_atom_site_fract_x
_atom_site_fract_y
_atom_site_fract_z
B          B       0.61237   0.61080   0.39580
B          B       0.38763   0.38923   0.39580
B          B       0.38763   0.61080   0.60422
B          B       0.61237   0.38923   0.60422
B          B       0.11287   0.89284   0.10717
B          B       0.88713   0.10719   0.10717
B          B       0.88713   0.89284   0.89284
B          B       0.11287   0.10719   0.89284
C          C       0.81727   0.81644   0.17805
C          C       0.18273   0.18360   0.17805
C          C       0.18273   0.81644   0.82196
C          C       0.81727   0.18360   0.82196
C          C       0.68736   0.68489   0.32019
C          C       0.31264   0.31514   0.32019
C          C       0.31264   0.68489   0.67982
C          C       0.68736   0.31514   0.67982
C          C       0.67729   0.67847   0.21216
C          C       0.32271   0.32156   0.21216
C          C       0.32271   0.67847   0.78785
C          C       0.67729   0.32156   0.78785
C          C       0.73942   0.74160   0.14412
C          C       0.26058   0.25843   0.14412
C          C       0.26058   0.74160   0.85589
C          C       0.73942   0.25843   0.85589
C          C       0.82808   0.82228   0.28573
C          C       0.17192   0.17776   0.28573
C          C       0.17192   0.82228   0.71428
C          C       0.82808   0.17776   0.71428
C          C       0.76608   0.75949   0.35405
C          C       0.23392   0.24054   0.35405
C          C       0.23392   0.75949   0.64597
C          C       0.76608   0.24054   0.64597
C          C       0.31650   0.67953   0.31898
C          C       0.68350   0.32050   0.31898
C          C       0.68350   0.67953   0.68103
C          C       0.31650   0.32050   0.68103
C          C       0.18813   0.81884   0.18267
C          C       0.81187   0.18120   0.18267
C          C       0.81187   0.81884   0.81734
C          C       0.18813   0.18120   0.81734
C          C       0.26684   0.85739   0.25347
C          C       0.73316   0.14264   0.25347
C          C       0.73316   0.85739   0.74654
C          C       0.26684   0.14264   0.74654
C          C       0.32762   0.79053   0.31897
C          C       0.67238   0.20950   0.31897
C          C       0.67238   0.79053   0.68104
C          C       0.32762   0.20950   0.68104
C          C       0.23895   0.64080   0.24774
C          C       0.76105   0.35923   0.24774
C          C       0.76105   0.64080   0.75227
C          C       0.23895   0.35923   0.75227
C          C       0.17766   0.70741   0.18228
C          C       0.82234   0.29262   0.18228
C          C       0.82234   0.70741   0.81773
C          C       0.17766   0.29262   0.81773
H          H       0.72650   0.73174   0.06769
H          H       0.27350   0.26829   0.06769
H          H       0.27350   0.73174   0.93232
H          H       0.72650   0.26829   0.93232
H          H       0.88288   0.87402   0.31626
H          H       0.11712   0.12601   0.31626
H          H       0.11712   0.87402   0.68375
H          H       0.88288   0.12601   0.68375
H          H       0.38209   0.82460   0.36790
H          H       0.61791   0.17544   0.36790
H          H       0.61791   0.82460   0.63212
H          H       0.38209   0.17544   0.63212
H          H       0.22557   0.56170   0.24215
H          H       0.77443   0.43833   0.24215
H          H       0.77443   0.56170   0.75786
H          H       0.22557   0.43833   0.75786
F          F       0.60844   0.61237   0.17175
F          F       0.39156   0.38766   0.17175
F          F       0.39156   0.61237   0.82826
F          F       0.60844   0.38766   0.82826
F          F       0.78585   0.77416   0.45073
F          F       0.21415   0.22587   0.45073
F          F       0.21415   0.77416   0.54929
F          F       0.78585   0.22587   0.54929
F          F       0.28847   0.95732   0.26212
F          F       0.71153   0.04271   0.26212
F          F       0.71153   0.95732   0.73789
F          F       0.28847   0.04271   0.73789
F          F       0.10921   0.66241   0.11992
F          F       0.89079   0.33762   0.11992
F          F       0.89079   0.66241   0.88009
F          F       0.10921   0.33762   0.88009
O          O       0.49883   0.63608   0.63401
O          O       0.50117   0.36395   0.63401
O          O       0.50117   0.63608   0.36601
O          O       0.49883   0.36395   0.36601
O          O       0.63954   0.63805   0.50146
O          O       0.36046   0.36198   0.50146
O          O       0.36046   0.63805   0.49856
O          O       0.63954   0.36198   0.49856
O          O       0.64215   0.50338   0.36897
O          O       0.35785   0.49666   0.36897
O          O       0.35785   0.50338   0.63105
O          O       0.64215   0.49666   0.63105
O          O       0.00178   0.86328   0.13336
O          O       0.99822   0.13675   0.13336
O          O       0.99822   0.86328   0.86665
O          O       0.00178   0.13675   0.86665
O          O       0.14056   0.99808   0.86884
O          O       0.85944   0.00195   0.86884
O          O       0.85944   0.99808   0.13117
O          O       0.14056   0.00195   0.13117
O          O       0.85887   0.86204   0.99695
O          O       0.14113   0.13799   0.99695
O          O       0.14113   0.86204   0.00307
O          O       0.85887   0.13799   0.00307
P          P       0.89120   0.89130   0.10147
P          P       0.10880   0.10873   0.10147
P          P       0.10880   0.89130   0.89854
P          P       0.89120   0.10873   0.89854
P          P       0.39074   0.60457   0.39515
P          P       0.60926   0.39546   0.39515
P          P       0.60926   0.60457   0.60487
P          P       0.39074   0.39546   0.60487
