data_crystal

_cell_length_a    14.28500
_cell_length_b    8.75480
_cell_length_c    10.94560
_cell_angle_alpha 90.00000
_cell_angle_beta  95.40200
_cell_angle_gamma 90.00000

_space_group_name_Hall 'P 1'
_space_group_name_H-M_alt  'P 1'

loop_
_symmetry_equiv_pos_as_xyz
 'x,y,z'

loop_
_atom_site_label
_atom_site_type_symbol
_atom_site_fract_x
_atom_site_fract_y
_atom_site_fract_z
B          B       0.39427   0.45100   0.15085
B          B       0.88760   0.04900   0.08915
P          P       0.32951   0.19660   0.26745
P          P       0.82284   0.30340   0.20575
H          H       0.66957   0.21961   0.03370
H          H       0.17625   0.28039   0.09540
H          H       0.69387   0.46078   0.34646
H          H       0.20054   0.03922   0.40817
H          H       0.51203   0.28744   0.00244
H          H       0.01870   0.21256   0.06415
H          H       0.53684   0.02278   0.31881
H          H       0.04351   0.47722   0.38052
C          C       0.50579   0.40550   0.16072
C          C       0.99912   0.09450   0.09902
C          C       0.70002   0.34200   0.18964
C          C       0.20669   0.15800   0.25135
C          C       0.64350   0.28350   0.08928
C          C       0.15017   0.21650   0.15098
C          C       0.65770   0.42700   0.27652
C          C       0.16437   0.07300   0.33823
C          C       0.54803   0.32000   0.07284
C          C       0.05470   0.18000   0.13454
C          C       0.56284   0.46150   0.26153
C          C       0.06951   0.03850   0.32323
O          O       0.34073   0.36750   0.23813
O          O       0.83406   0.13250   0.17642
O          O       0.37861   0.11400   0.16700
O          O       0.87194   0.38600   0.10530
O          O       0.34477   0.41750   0.01667
O          O       0.83810   0.08250  -0.04503
O          O       0.37144   0.16600   0.39189
O          O       0.86477   0.33400   0.33018
B          B       0.39427   0.95100   0.15085
B          B       0.88760   0.54900   0.08915
P          P       0.32951   0.69660   0.26745
P          P       0.82284   0.80340   0.20575
H          H       0.66957   0.71961   0.03370
H          H       0.17625   0.78039   0.09540
H          H       0.69387   0.96078   0.34646
H          H       0.20054   0.53922   0.40817
H          H       0.51203   0.78744   0.00244
H          H       0.01870   0.71256   0.06414
H          H       0.53684   0.52277   0.31881
H          H       0.04351   0.97723   0.38052
C          C       0.50579   0.90550   0.16072
C          C       0.99912   0.59450   0.09902
C          C       0.70002   0.84200   0.18964
C          C       0.20669   0.65800   0.25135
C          C       0.64350   0.78350   0.08928
C          C       0.15017   0.71650   0.15098
C          C       0.65770   0.92700   0.27652
C          C       0.16437   0.57300   0.33822
C          C       0.54803   0.82000   0.07283
C          C       0.05470   0.68000   0.13454
C          C       0.56284   0.96150   0.26153
C          C       0.06951   0.53850   0.32323
O          O       0.34073   0.86750   0.23813
O          O       0.83406   0.63250   0.17642
O          O       0.37861   0.61400   0.16700
O          O       0.87194   0.88600   0.10530
O          O       0.34477   0.91750   0.01667
O          O       0.83810   0.58250  -0.04503
O          O       0.37144   0.66600   0.39189
O          O       0.86477   0.83400   0.33018
B          B       0.43050   0.45100   0.65309
B          B       0.92383   0.04900   0.59138
P          P       0.36574   0.19660   0.76968
P          P       0.85907   0.30340   0.70798
H          H       0.70580   0.21961   0.53593
H          H       0.21247   0.28039   0.59763
H          H       0.73010   0.46078   0.84869
H          H       0.23677   0.03922   0.91040
H          H       0.54826   0.28744   0.50466
H          H       0.05493   0.21256   0.56637
H          H       0.57306   0.02278   0.82104
H          H       0.07974   0.47722   0.88275
C          C       0.54202   0.40550   0.66295
C          C       1.03535   0.09450   0.60125
C          C       0.73625   0.34200   0.69187
C          C       0.24292   0.15800   0.75358
C          C       0.67973   0.28350   0.59151
C          C       0.18640   0.21650   0.65321
C          C       0.69393   0.42700   0.77875
C          C       0.20060   0.07300   0.84045
C          C       0.58426   0.32000   0.57507
C          C       0.09093   0.18000   0.63677
C          C       0.59907   0.46150   0.76376
C          C       0.10574   0.03850   0.82547
O          O       0.37696   0.36750   0.74036
O          O       0.87029   0.13250   0.67865
O          O       0.41484   0.11400   0.66923
O          O       0.90817   0.38600   0.60753
O          O       0.38100   0.41750   0.51890
O          O       0.87433   0.08250   0.45720
O          O       0.40767   0.16600   0.89412
O          O       0.90099   0.33400   0.83241
B          B       0.43050   0.95100   0.65309
B          B       0.92383   0.54900   0.59138
P          P       0.36574   0.69660   0.76968
P          P       0.85907   0.80340   0.70798
H          H       0.70580   0.71961   0.53593
H          H       0.21247   0.78039   0.59763
H          H       0.73010   0.96078   0.84869
H          H       0.23677   0.53922   0.91040
H          H       0.54826   0.78744   0.50466
H          H       0.05493   0.71256   0.56638
H          H       0.57306   0.52277   0.82104
H          H       0.07974   0.97723   0.88275
C          C       0.54202   0.90550   0.66295
C          C       1.03535   0.59450   0.60125
C          C       0.73625   0.84200   0.69187
C          C       0.24292   0.65800   0.75358
C          C       0.67973   0.78350   0.59151
C          C       0.18640   0.71650   0.65321
C          C       0.69393   0.92700   0.77875
C          C       0.20060   0.57300   0.84046
C          C       0.58426   0.82000   0.57507
C          C       0.09093   0.68000   0.63677
C          C       0.59907   0.96150   0.76376
C          C       0.10574   0.53850   0.82547
O          O       0.37696   0.86750   0.74036
O          O       0.87029   0.63250   0.67865
O          O       0.41484   0.61400   0.66923
O          O       0.90817   0.88600   0.60753
O          O       0.38100   0.91750   0.51890
O          O       0.87433   0.58250   0.45720
O          O       0.40767   0.66600   0.89412
O          O       0.90099   0.83400   0.83241
