data_crystal

_cell_length_a    23.68650
_cell_length_b    23.68650
_cell_length_c    13.30020
_cell_angle_alpha 90.00000
_cell_angle_beta  90.00000
_cell_angle_gamma 90.00000

_space_group_name_Hall 'P 1'
_space_group_name_H-M_alt  'P 1'

loop_
_symmetry_equiv_pos_as_xyz
'x,y,z'

loop_
_atom_site_label
_atom_site_type_symbol
_atom_site_fract_x
_atom_site_fract_y
_atom_site_fract_z
C          C       0.44990   0.72180   0.60440
C          C       0.05010   0.77820   0.10440
C          C       0.27820   0.94990   0.85440
C          C       0.22180   0.55010   0.35440
C          C       0.55010   0.77820   0.64560
C          C       0.94990   0.72180   0.14560
C          C       0.72180   0.55010   0.39560
C          C       0.77820   0.94990   0.89560
C          C       0.94990   0.22180   0.10440
C          C       0.55010   0.27820   0.60440
C          C       0.77820   0.44990   0.35440
C          C       0.72180   0.05010   0.85440
C          C       0.05010   0.27820   0.14560
C          C       0.44990   0.22180   0.64560
C          C       0.22180   0.05010   0.89560
C          C       0.27820   0.44990   0.39560
C          C       0.49360   0.71400   0.53114
C          C       0.00640   0.78600   0.03114
C          C       0.28600   0.99360   0.78114
C          C       0.21400   0.50640   0.28114
C          C       0.50640   0.78600   0.71886
C          C       0.99360   0.71400   0.21886
C          C       0.71400   0.50640   0.46886
C          C       0.78600   0.99360   0.96886
C          C       0.99360   0.21400   0.03114
C          C       0.50640   0.28600   0.53114
C          C       0.78600   0.49360   0.28114
C          C       0.71400   0.00640   0.78114
C          C       0.00640   0.28600   0.21886
C          C       0.49360   0.21400   0.71886
C          C       0.21400   0.00640   0.96886
C          C       0.28600   0.49360   0.46886
N          N       0.48400   0.67849   0.43836
N          N       0.01600   0.82151   0.93836
N          N       0.32151   0.98400   0.68836
N          N       0.17849   0.51600   0.18836
N          N       0.51600   0.82151   0.81164
N          N       0.98400   0.67849   0.31164
N          N       0.67849   0.51600   0.56164
N          N       0.82151   0.98400   0.06164
N          N       0.98400   0.17849   0.93836
N          N       0.51600   0.32151   0.43836
N          N       0.82151   0.48400   0.18836
N          N       0.67849   0.01600   0.68836
N          N       0.01600   0.32151   0.31164
N          N       0.48400   0.17849   0.81164
N          N       0.17849   0.01600   0.06164
N          N       0.32151   0.48400   0.56164
C          C       0.54410   0.74420   0.55530
C          C       0.95590   0.75580   0.05530
C          C       0.25580   0.04410   0.80530
C          C       0.24420   0.45590   0.30530
C          C       0.45590   0.75580   0.69470
C          C       0.04410   0.74420   0.19470
C          C       0.74420   0.45590   0.44470
C          C       0.75580   0.04410   0.94470
C          C       0.04410   0.24420   0.05530
C          C       0.45590   0.25580   0.55530
C          C       0.75580   0.54410   0.30530
C          C       0.74420   0.95590   0.80530
C          C       0.95590   0.25580   0.19470
C          C       0.54410   0.24420   0.69470
C          C       0.24420   0.95590   0.94470
C          C       0.25580   0.54410   0.44470
C          C       0.51950   0.66580   0.36150
C          C       0.98050   0.83420   0.86150
C          C       0.33420   0.01950   0.61150
C          C       0.16580   0.48050   0.11150
C          C       0.48050   0.83420   0.88850
C          C       0.01950   0.66580   0.38850
C          C       0.66580   0.48050   0.63850
C          C       0.83420   0.01950   0.13850
C          C       0.01950   0.16580   0.86150
C          C       0.48050   0.33420   0.36150
C          C       0.83420   0.51950   0.11150
C          C       0.66580   0.98050   0.61150
C          C       0.98050   0.33420   0.38850
C          C       0.51950   0.16580   0.88850
C          C       0.16580   0.98050   0.13850
C          C       0.33420   0.51950   0.63850
C          C       0.50960   0.62730   0.26500
C          C       0.99040   0.87270   0.76500
C          C       0.37270   0.00960   0.51500
C          C       0.12730   0.49040   0.01500
C          C       0.49040   0.87270   0.98500
C          C       0.00960   0.62730   0.48500
C          C       0.62730   0.49040   0.73500
C          C       0.87270   0.00960   0.23500
C          C       0.00960   0.12730   0.76500
C          C       0.49040   0.37270   0.26500
C          C       0.87270   0.50960   0.01500
C          C       0.62730   0.99040   0.51500
C          C       0.99040   0.37270   0.48500
C          C       0.50960   0.12730   0.98500
C          C       0.12730   0.99040   0.23500
C          C       0.37270   0.50960   0.73500
C          C       0.55470   0.61760   0.19600
C          C       0.94530   0.88240   0.69600
C          C       0.38240   0.05470   0.44600
C          C       0.11760   0.44530   0.94600
C          C       0.44530   0.88240   0.05400
C          C       0.05470   0.61760   0.55400
C          C       0.61760   0.44530   0.80400
C          C       0.88240   0.05470   0.30400
C          C       0.05470   0.11760   0.69600
C          C       0.44530   0.38240   0.19600
C          C       0.88240   0.55470   0.94600
C          C       0.61760   0.94530   0.44600
C          C       0.94530   0.38240   0.55400
C          C       0.55470   0.11760   0.05400
C          C       0.11760   0.94530   0.30400
C          C       0.38240   0.55470   0.80400
C          C       0.55080   0.58160   0.10800
C          C       0.94920   0.91840   0.60800
C          C       0.41840   0.05080   0.35800
C          C       0.08160   0.44920   0.85800
C          C       0.44920   0.91840   0.14200
C          C       0.05080   0.58160   0.64200
C          C       0.58160   0.44920   0.89200
C          C       0.91840   0.05080   0.39200
C          C       0.05080   0.08160   0.60800
C          C       0.44920   0.41840   0.10800
C          C       0.91840   0.55080   0.85800
C          C       0.58160   0.94920   0.35800
C          C       0.94920   0.41840   0.64200
C          C       0.55080   0.08160   0.14200
C          C       0.08160   0.94920   0.39200
C          C       0.41840   0.55080   0.89200
C          C       0.50000   0.55273   0.07980
C          C       0.00000   0.94727   0.57980
C          C       0.44727   0.00000   0.32980
C          C       0.05273   0.50000   0.82980
C          C       0.50000   0.94727   0.17020
C          C       0.00000   0.55273   0.67020
C          C       0.55273   0.50000   0.92020
C          C       0.94727   0.00000   0.42020
C          C       0.00000   0.05273   0.57980
C          C       0.50000   0.44727   0.07980
C          C       0.94727   0.50000   0.82980
C          C       0.55273   0.00000   0.32980
C          C       0.00000   0.44727   0.67020
C          C       0.50000   0.05273   0.17020
C          C       0.05273   0.00000   0.42020
C          C       0.44727   0.50000   0.92020
C          C       0.45500   0.56280   0.14900
C          C       0.04500   0.93720   0.64900
C          C       0.43720   0.95500   0.39900
C          C       0.06280   0.54500   0.89900
C          C       0.54500   0.93720   0.10100
C          C       0.95500   0.56280   0.60100
C          C       0.56280   0.54500   0.85100
C          C       0.93720   0.95500   0.35100
C          C       0.95500   0.06280   0.64900
C          C       0.54500   0.43720   0.14900
C          C       0.93720   0.45500   0.89900
C          C       0.56280   0.04500   0.39900
C          C       0.04500   0.43720   0.60100
C          C       0.45500   0.06280   0.10100
C          C       0.06280   0.04500   0.35100
C          C       0.43720   0.45500   0.85100
C          C       0.45900   0.59880   0.23720
C          C       0.04100   0.90120   0.73720
C          C       0.40120   0.95900   0.48720
C          C       0.09880   0.54100   0.98720
C          C       0.54100   0.90120   0.01280
C          C       0.95900   0.59880   0.51280
C          C       0.59880   0.54100   0.76280
C          C       0.90120   0.95900   0.26280
C          C       0.95900   0.09880   0.73720
C          C       0.54100   0.40120   0.23720
C          C       0.90120   0.45900   0.98720
C          C       0.59880   0.04100   0.48720
C          C       0.04100   0.40120   0.51280
C          C       0.45900   0.09880   0.01280
C          C       0.09880   0.04100   0.26280
C          C       0.40120   0.45900   0.76280
H          H       0.40810   0.70050   0.59370
H          H       0.09190   0.79950   0.09370
H          H       0.29950   0.90810   0.84370
H          H       0.20050   0.59190   0.34370
H          H       0.59190   0.79950   0.65630
H          H       0.90810   0.70050   0.15630
H          H       0.70050   0.59190   0.40630
H          H       0.79950   0.90810   0.90630
H          H       0.90810   0.20050   0.09370
H          H       0.59190   0.29950   0.59370
H          H       0.79950   0.40810   0.34370
H          H       0.70050   0.09190   0.84370
H          H       0.09190   0.29950   0.15630
H          H       0.40810   0.20050   0.65630
H          H       0.20050   0.09190   0.90630
H          H       0.29950   0.40810   0.40630
H          H       0.58150   0.74190   0.50350
H          H       0.91850   0.75810   0.00350
H          H       0.25810   0.08150   0.75350
H          H       0.24190   0.41850   0.25350
H          H       0.41850   0.75810   0.74650
H          H       0.08150   0.74190   0.24650
H          H       0.74190   0.41850   0.49650
H          H       0.75810   0.08150   0.99650
H          H       0.08150   0.24190   0.00350
H          H       0.41850   0.25810   0.50350
H          H       0.75810   0.58150   0.25350
H          H       0.74190   0.91850   0.75350
H          H       0.91850   0.25810   0.24650
H          H       0.58150   0.24190   0.74650
H          H       0.24190   0.91850   0.99650
H          H       0.25810   0.58150   0.49650
H          H       0.56330   0.68370   0.35950
H          H       0.93670   0.81630   0.85950
H          H       0.31630   0.06330   0.60950
H          H       0.18370   0.43670   0.10950
H          H       0.43670   0.81630   0.89050
H          H       0.06330   0.68370   0.39050
H          H       0.68370   0.43670   0.64050
H          H       0.81630   0.06330   0.14050
H          H       0.06330   0.18370   0.85950
H          H       0.43670   0.31630   0.35950
H          H       0.81630   0.56330   0.10950
H          H       0.68370   0.93670   0.60950
H          H       0.93670   0.31630   0.39050
H          H       0.56330   0.18370   0.89050
H          H       0.18370   0.93670   0.14050
H          H       0.31630   0.56330   0.64050
H          H       0.59660   0.63850   0.20811
H          H       0.90340   0.86150   0.70811
H          H       0.36150   0.09660   0.45811
H          H       0.13850   0.40340   0.95811
H          H       0.40340   0.86150   0.04189
H          H       0.09660   0.63850   0.54189
H          H       0.63850   0.40340   0.79189
H          H       0.86150   0.09660   0.29189
H          H       0.09660   0.13850   0.70811
H          H       0.40340   0.36150   0.20811
H          H       0.86150   0.59660   0.95811
H          H       0.63850   0.90340   0.45811
H          H       0.90340   0.36150   0.54189
H          H       0.59660   0.13850   0.04189
H          H       0.13850   0.90340   0.29189
H          H       0.36150   0.59660   0.79189
H          H       0.58860   0.57520   0.05890
H          H       0.91140   0.92480   0.55890
H          H       0.42480   0.08860   0.30890
H          H       0.07520   0.41140   0.80890
H          H       0.41140   0.92480   0.19110
H          H       0.08860   0.57520   0.69110
H          H       0.57520   0.41140   0.94110
H          H       0.92480   0.08860   0.44110
H          H       0.08860   0.07520   0.55890
H          H       0.41140   0.42480   0.05890
H          H       0.92480   0.58860   0.80890
H          H       0.57520   0.91140   0.30890
H          H       0.91140   0.42480   0.69110
H          H       0.58860   0.07520   0.19110
H          H       0.07520   0.91140   0.44110
H          H       0.42480   0.58860   0.94110
H          H       0.41290   0.54220   0.13650
H          H       0.08710   0.95780   0.63650
H          H       0.45780   0.91290   0.38650
H          H       0.04220   0.58710   0.88650
H          H       0.58710   0.95780   0.11350
H          H       0.91290   0.54220   0.61350
H          H       0.54220   0.58710   0.86350
H          H       0.95780   0.91290   0.36350
H          H       0.91290   0.04220   0.63650
H          H       0.58710   0.45780   0.13650
H          H       0.95780   0.41290   0.88650
H          H       0.54220   0.08710   0.38650
H          H       0.08710   0.45780   0.61350
H          H       0.41290   0.04220   0.11350
H          H       0.04220   0.08710   0.36350
H          H       0.45780   0.41290   0.86350
H          H       0.42000   0.60371   0.28432
H          H       0.08000   0.89629   0.78432
H          H       0.39629   0.92000   0.53432
H          H       0.10371   0.58000   0.03432
H          H       0.58000   0.89629   0.96568
H          H       0.92000   0.60371   0.46568
H          H       0.60371   0.58000   0.71568
H          H       0.89629   0.92000   0.21568
H          H       0.92000   0.10371   0.78432
H          H       0.58000   0.39629   0.28432
H          H       0.89629   0.42000   0.03432
H          H       0.60371   0.08000   0.53432
H          H       0.08000   0.39629   0.46568
H          H       0.42000   0.10371   0.96568
H          H       0.10371   0.08000   0.21568
H          H       0.39629   0.42000   0.71568
C          C       0.00000   0.50000   0.75000
C          C       0.50000   0.00000   0.25000
C          C       0.50000   0.50000   0.00000
C          C       0.00000   0.00000   0.50000
