data_crystal

_cell_length_a    29.63520
_cell_length_b    29.63520
_cell_length_c    11.74470
_cell_angle_alpha 90.00000
_cell_angle_beta  90.00000
_cell_angle_gamma 90.00000

_space_group_name_Hall 'P 1'
_space_group_name_H-M_alt  'P 1'

loop_
_symmetry_equiv_pos_as_xyz
'x,y,z'

loop_
_atom_site_label
_atom_site_type_symbol
_atom_site_fract_x
_atom_site_fract_y
_atom_site_fract_z
C          C       0.94137   0.46325   0.88606
C          C       0.05863   0.53675   0.88606
C          C       0.46325   0.05863   0.11394
C          C       0.53675   0.94137   0.11394
C          C       0.44137   0.03675   0.38606
C          C       0.55863   0.96325   0.38606
C          C       0.96325   0.44137   0.61394
C          C       0.03675   0.55863   0.61394
C          C       0.19364   0.46745   0.30777
C          C       0.80636   0.53255   0.30777
C          C       0.46745   0.80636   0.69223
C          C       0.53255   0.19364   0.69223
C          C       0.69364   0.03255   0.80777
C          C       0.30636   0.96745   0.80777
C          C       0.96745   0.69364   0.19223
C          C       0.03255   0.30636   0.19223
C          C       0.12797   0.48210   0.12331
C          C       0.87203   0.51790   0.12331
C          C       0.48210   0.87203   0.87669
C          C       0.51790   0.12797   0.87669
C          C       0.62797   0.01790   0.62331
C          C       0.37203   0.98210   0.62331
C          C       0.98210   0.62797   0.37669
C          C       0.01790   0.37203   0.37669
C          C       0.09972   0.48955   0.02161
C          C       0.90028   0.51045   0.02161
C          C       0.48955   0.90028   0.97839
C          C       0.51045   0.09972   0.97839
C          C       0.59972   0.01045   0.52161
C          C       0.40028   0.98955   0.52161
C          C       0.98955   0.59972   0.47839
C          C       0.01045   0.40028   0.47839
C          C       0.08227   0.45132   0.96824
C          C       0.91773   0.54868   0.96824
C          C       0.45132   0.91773   0.03176
C          C       0.54868   0.08227   0.03176
C          C       0.58227   0.04868   0.46824
C          C       0.41773   0.95132   0.46824
C          C       0.95132   0.58227   0.53176
C          C       0.04868   0.41773   0.53176
C          C       0.05243   0.45542   0.87822
C          C       0.94757   0.54458   0.87822
C          C       0.45542   0.94757   0.12178
C          C       0.54458   0.05243   0.12178
C          C       0.55243   0.04458   0.37822
C          C       0.44757   0.95542   0.37822
C          C       0.95542   0.55243   0.62178
C          C       0.04458   0.44757   0.62178
C          C       0.04035   0.49801   0.83327
C          C       0.95965   0.50199   0.83327
C          C       0.49801   0.95965   0.16673
C          C       0.50199   0.04035   0.16673
C          C       0.54035   0.00199   0.33327
C          C       0.45965   0.99801   0.33327
C          C       0.99801   0.54035   0.66673
C          C       0.00199   0.45965   0.66673
H          H       0.19457   0.44066   0.24560
H          H       0.80543   0.55934   0.24560
H          H       0.44066   0.80543   0.75440
H          H       0.55934   0.19457   0.75440
H          H       0.69457   0.05934   0.74560
H          H       0.30543   0.94066   0.74560
H          H       0.94066   0.69457   0.25440
H          H       0.05934   0.30543   0.25440
H          H       0.13387   0.44737   0.14721
H          H       0.86613   0.55263   0.14721
H          H       0.44737   0.86613   0.85279
H          H       0.55263   0.13387   0.85279
H          H       0.63387   0.05263   0.64721
H          H       0.36613   0.94737   0.64721
H          H       0.94737   0.63387   0.35279
H          H       0.05263   0.36613   0.35279
H          H       0.09018   0.41783   0.99954
H          H       0.90982   0.58217   0.99954
H          H       0.41783   0.90982   0.00046
H          H       0.58217   0.09018   0.00046
H          H       0.59018   0.08217   0.49954
H          H       0.40982   0.91783   0.49954
H          H       0.91783   0.59018   0.50046
H          H       0.08217   0.40982   0.50046
H          H       0.03732   0.42467   0.84627
H          H       0.96268   0.57533   0.84627
H          H       0.42467   0.96268   0.15373
H          H       0.57533   0.03732   0.15373
H          H       0.53732   0.07533   0.34627
H          H       0.46268   0.92467   0.34627
H          H       0.92467   0.53732   0.65373
H          H       0.07533   0.46268   0.65373
C          C       0.21832   0.46159   0.40806
C          C       0.78168   0.53841   0.40806
C          C       0.46159   0.78168   0.59194
C          C       0.53841   0.21832   0.59194
C          C       0.71832   0.03841   0.90806
C          C       0.28168   0.96159   0.90806
C          C       0.96159   0.71832   0.09194
C          C       0.03841   0.28168   0.09194
C          C       0.22023   0.49588   0.48921
C          C       0.77977   0.50412   0.48921
C          C       0.49588   0.77977   0.51079
C          C       0.50412   0.22023   0.51079
C          C       0.72023   0.00412   0.98921
C          C       0.27977   0.99588   0.98921
C          C       0.99588   0.72023   0.01079
C          C       0.00412   0.27977   0.01079
H          H       0.23666   0.43052   0.42242
H          H       0.76334   0.56948   0.42242
H          H       0.43052   0.76334   0.57758
H          H       0.56948   0.23666   0.57758
H          H       0.73666   0.06948   0.92242
H          H       0.26334   0.93052   0.92242
H          H       0.93052   0.73666   0.07758
H          H       0.06948   0.26334   0.07758
C          C       0.17152   0.54215   0.36963
C          C       0.82848   0.45785   0.36963
C          C       0.54215   0.82848   0.63037
C          C       0.45785   0.17152   0.63037
C          C       0.67152   0.95785   0.86963
C          C       0.32848   0.04215   0.86963
C          C       0.04215   0.67152   0.13037
C          C       0.95785   0.32848   0.13037
C          C       0.16941   0.50775   0.28818
C          C       0.83059   0.49225   0.28818
C          C       0.50775   0.83059   0.71182
C          C       0.49225   0.16941   0.71182
C          C       0.66941   0.99225   0.78818
C          C       0.33059   0.00775   0.78818
C          C       0.00775   0.66941   0.21182
C          C       0.99225   0.33059   0.21182
N          N       0.14273   0.51475   0.18714
N          N       0.85727   0.48525   0.18714
N          N       0.51475   0.85727   0.81286
N          N       0.48525   0.14273   0.81286
N          N       0.64273   0.98525   0.68714
N          N       0.35727   0.01475   0.68714
N          N       0.01475   0.64273   0.31286
N          N       0.98525   0.35727   0.31286
C          C       0.08811   0.53252   0.97973
C          C       0.91189   0.46748   0.97973
C          C       0.53252   0.91189   0.02027
C          C       0.46748   0.08811   0.02027
C          C       0.58811   0.96748   0.47973
C          C       0.41189   0.03252   0.47973
C          C       0.03252   0.58811   0.52027
C          C       0.96748   0.41189   0.52027
H          H       0.15329   0.57328   0.35524
H          H       0.84671   0.42672   0.35524
H          H       0.57328   0.84671   0.64476
H          H       0.42672   0.15329   0.64476
H          H       0.65329   0.92672   0.85524
H          H       0.34671   0.07328   0.85524
H          H       0.07328   0.65329   0.14476
H          H       0.92672   0.34671   0.14476
H          H       0.04835   0.57008   0.85879
H          H       0.95165   0.42992   0.85879
H          H       0.57008   0.95165   0.14121
H          H       0.42992   0.04835   0.14121
H          H       0.54835   0.92992   0.35879
H          H       0.45165   0.07008   0.35879
H          H       0.07008   0.54835   0.64121
H          H       0.92992   0.45165   0.64121
H          H       0.10074   0.56251   0.02169
H          H       0.89926   0.43749   0.02169
H          H       0.56251   0.89926   0.97831
H          H       0.43749   0.10074   0.97831
H          H       0.60074   0.93749   0.52169
H          H       0.39926   0.06251   0.52169
H          H       0.06251   0.60074   0.47831
H          H       0.93749   0.39926   0.47831
C          C       0.19671   0.53636   0.46972
C          C       0.80329   0.46364   0.46972
C          C       0.53636   0.80329   0.53028
C          C       0.46364   0.19671   0.53028
C          C       0.69671   0.96364   0.96972
C          C       0.30329   0.03636   0.96972
C          C       0.03636   0.69671   0.03028
C          C       0.96364   0.30329   0.03028
H          H       0.19809   0.56325   0.53192
H          H       0.80191   0.43675   0.53192
H          H       0.56325   0.80191   0.46808
H          H       0.43675   0.19809   0.46808
H          H       0.69809   0.93675   0.03192
H          H       0.30191   0.06325   0.03192
H          H       0.06325   0.69809   0.96808
H          H       0.93675   0.30191   0.96808
C          C       0.47291   0.36547   0.85677
C          C       0.52709   0.63453   0.85677
C          C       0.36547   0.52709   0.14323
C          C       0.63453   0.47291   0.14323
C          C       0.97291   0.13453   0.35677
C          C       0.02709   0.86547   0.35677
C          C       0.86547   0.97291   0.64323
C          C       0.13453   0.02709   0.64323
C          C       0.48166   0.39645   0.76103
C          C       0.51834   0.60355   0.76103
C          C       0.39645   0.51834   0.23897
C          C       0.60355   0.48166   0.23897
C          C       0.98166   0.10355   0.26103
C          C       0.01834   0.89645   0.26103
C          C       0.89645   0.98166   0.73897
C          C       0.10355   0.01834   0.73897
C          C       0.44661   0.40594   0.68472
C          C       0.55339   0.59406   0.68472
C          C       0.40594   0.55339   0.31528
C          C       0.59406   0.44661   0.31528
C          C       0.94661   0.09406   0.18472
C          C       0.05339   0.90594   0.18472
C          C       0.90594   0.94661   0.81528
C          C       0.09406   0.05339   0.81528
C          C       0.45248   0.43736   0.59747
C          C       0.54752   0.56264   0.59747
C          C       0.43736   0.54752   0.40253
C          C       0.56264   0.45248   0.40253
C          C       0.95248   0.06264   0.09747
C          C       0.04752   0.93736   0.09747
C          C       0.93736   0.95248   0.90253
C          C       0.06264   0.04752   0.90253
C          C       0.49424   0.45948   0.58199
C          C       0.50576   0.54052   0.58199
C          C       0.45948   0.50576   0.41801
C          C       0.54052   0.49424   0.41801
C          C       0.99424   0.04052   0.08199
C          C       0.00576   0.95948   0.08199
C          C       0.95948   0.99424   0.91801
C          C       0.04052   0.00576   0.91801
H          H       0.44090   0.34818   0.85695
H          H       0.55910   0.65182   0.85695
H          H       0.34818   0.55910   0.14305
H          H       0.65182   0.44090   0.14305
H          H       0.94090   0.15182   0.35695
H          H       0.05910   0.84818   0.35695
H          H       0.84818   0.94090   0.64305
H          H       0.15182   0.05910   0.64305
H          H       0.41388   0.39022   0.69537
H          H       0.58612   0.60978   0.69537
H          H       0.39022   0.58612   0.30463
H          H       0.60978   0.41388   0.30463
H          H       0.91388   0.10978   0.19537
H          H       0.08612   0.89022   0.19537
H          H       0.89022   0.91388   0.80463
H          H       0.10978   0.08612   0.80463
H          H       0.42331   0.44559   0.54640
H          H       0.57669   0.55441   0.54640
H          H       0.44559   0.57669   0.45360
H          H       0.55441   0.42331   0.45360
H          H       0.92331   0.05441   0.04640
H          H       0.07669   0.94559   0.04640
H          H       0.94559   0.92331   0.95360
H          H       0.05441   0.07669   0.95360
N          N       0.24707   0.48904   0.58909
N          N       0.75293   0.51096   0.58909
N          N       0.48904   0.75293   0.41091
N          N       0.51096   0.24707   0.41091
N          N       0.74707   0.01096   0.08909
N          N       0.25293   0.98904   0.08909
N          N       0.98904   0.74707   0.91091
N          N       0.01096   0.25293   0.91091
C          C       0.44889   0.47037   0.34161
C          C       0.55111   0.52963   0.34161
C          C       0.47037   0.55111   0.65839
C          C       0.52963   0.44889   0.65839
C          C       0.94889   0.02963   0.84161
C          C       0.05111   0.97037   0.84161
C          C       0.97037   0.94889   0.15839
C          C       0.02963   0.05111   0.15839
C          C       0.41786   0.47657   0.25329
C          C       0.58214   0.52343   0.25329
C          C       0.47657   0.58214   0.74671
C          C       0.52343   0.41786   0.74671
C          C       0.91786   0.02343   0.75329
C          C       0.08214   0.97657   0.75329
C          C       0.97657   0.91786   0.24671
C          C       0.02343   0.08214   0.24671
H          H       0.46624   0.43828   0.34811
H          H       0.53376   0.56172   0.34811
H          H       0.43828   0.53376   0.65189
H          H       0.56172   0.46624   0.65189
H          H       0.96624   0.06172   0.84811
H          H       0.03376   0.93828   0.84811
H          H       0.93828   0.96624   0.15189
H          H       0.06172   0.03376   0.15189
H          H       0.41136   0.44917   0.19443
H          H       0.58864   0.55083   0.19443
H          H       0.44917   0.58864   0.80557
H          H       0.55083   0.41136   0.80557
H          H       0.91136   0.05083   0.69443
H          H       0.08864   0.94917   0.69443
H          H       0.94917   0.91136   0.30557
H          H       0.05083   0.08864   0.30557
N          N       0.50176   0.36030   0.93940
N          N       0.49824   0.63970   0.93940
N          N       0.36030   0.49824   0.06060
N          N       0.63970   0.50176   0.06060
N          N       0.00176   0.13970   0.43940
N          N       0.99824   0.86030   0.43940
N          N       0.86030   0.00176   0.56060
N          N       0.13970   0.99824   0.56060
C          C       0.45498   0.30951   0.06211
C          C       0.54502   0.69049   0.06211
C          C       0.30951   0.54502   0.93789
C          C       0.69049   0.45498   0.93789
C          C       0.95498   0.19049   0.56211
C          C       0.04502   0.80951   0.56211
C          C       0.80951   0.95498   0.43789
C          C       0.19049   0.04502   0.43789
H          H       0.42610   0.31169   0.00677
H          H       0.57390   0.68831   0.00677
H          H       0.31169   0.57390   0.99323
H          H       0.68831   0.42610   0.99323
H          H       0.92610   0.18831   0.50677
H          H       0.07390   0.81169   0.50677
H          H       0.81169   0.92610   0.49323
H          H       0.18831   0.07390   0.49323
C          C       0.45077   0.28308   0.16002
C          C       0.54923   0.71692   0.16002
C          C       0.28308   0.54923   0.83998
C          C       0.71692   0.45077   0.83998
C          C       0.95077   0.21692   0.66002
C          C       0.04923   0.78308   0.66002
C          C       0.78308   0.95077   0.33998
C          C       0.21692   0.04923   0.33998
C          C       0.48652   0.27918   0.23653
C          C       0.51348   0.72082   0.23653
C          C       0.27918   0.51348   0.76347
C          C       0.72082   0.48652   0.76347
C          C       0.98652   0.22082   0.73653
C          C       0.01348   0.77918   0.73653
C          C       0.77918   0.98652   0.26347
C          C       0.22082   0.01348   0.26347
N          N       0.48034   0.25199   0.33600
N          N       0.51966   0.74801   0.33600
N          N       0.25199   0.51966   0.66400
N          N       0.74801   0.48034   0.66400
N          N       0.98034   0.24801   0.83600
N          N       0.01966   0.75199   0.83600
N          N       0.75199   0.98034   0.16400
N          N       0.24801   0.01966   0.16400
H          H       0.41946   0.26557   0.17719
H          H       0.58054   0.73443   0.17719
H          H       0.26557   0.58054   0.82281
H          H       0.73443   0.41946   0.82281
H          H       0.91946   0.23443   0.67719
H          H       0.08054   0.76557   0.67719
H          H       0.76557   0.91946   0.32281
H          H       0.23443   0.08054   0.32281
C          C       0.53138   0.32880   0.11630
C          C       0.46862   0.67120   0.11630
C          C       0.32880   0.46862   0.88370
C          C       0.67120   0.53138   0.88370
C          C       0.03138   0.17120   0.61630
C          C       0.96862   0.82880   0.61630
C          C       0.82880   0.03138   0.38370
C          C       0.17120   0.96862   0.38370
C          C       0.49563   0.33249   0.03873
C          C       0.50437   0.66751   0.03873
C          C       0.33249   0.50437   0.96127
C          C       0.66751   0.49563   0.96127
C          C       0.99563   0.16751   0.53873
C          C       0.00437   0.83249   0.53873
C          C       0.83249   0.99563   0.46127
C          C       0.16751   0.00437   0.46127
H          H       0.56260   0.34663   0.09989
H          H       0.43740   0.65337   0.09989
H          H       0.34663   0.43740   0.90011
H          H       0.65337   0.56260   0.90011
H          H       0.06260   0.15337   0.59989
H          H       0.93740   0.84663   0.59989
H          H       0.84663   0.06260   0.40011
H          H       0.15337   0.93740   0.40011
C          C       0.52701   0.30229   0.21468
C          C       0.47299   0.69771   0.21468
C          C       0.30229   0.47299   0.78532
C          C       0.69771   0.52701   0.78532
C          C       0.02701   0.19771   0.71468
C          C       0.97299   0.80229   0.71468
C          C       0.80229   0.02701   0.28532
C          C       0.19771   0.97299   0.28532
H          H       0.55490   0.29970   0.27380
H          H       0.44510   0.70030   0.27380
H          H       0.29970   0.44510   0.72620
H          H       0.70030   0.55490   0.72620
H          H       0.05490   0.20030   0.77380
H          H       0.94510   0.79970   0.77380
H          H       0.79970   0.05490   0.22620
H          H       0.20030   0.94510   0.22620
C          C       0.50000   0.00000   0.25000
C          C       0.00000   0.50000   0.75000
C          C       0.50000   0.50000   0.50000
C          C       0.00000   0.00000   0.00000
