data_crystal

_cell_length_a    47.31000
_cell_length_b    48.24000
_cell_length_c    7.46000
_cell_angle_alpha 90.00000
_cell_angle_beta  90.00000
_cell_angle_gamma 88.46000

_symmetry_space_group_name_Hall 'P 1'
_symmetry_space_group_name_H-M  'P 1'

loop_
_symmetry_equiv_pos_as_xyz
 'x,y,z'

loop_
_atom_site_label
_atom_site_type_symbol
_atom_site_fract_x
_atom_site_fract_y
_atom_site_fract_z
C          C       0.47856   0.55861   0.20263
C          C       0.52144   0.55861   0.29738
C          C       0.97856   0.05861   0.20263
C          C       0.02144   0.05861   0.29738
C          C       0.52144   0.44139   0.29738
C          C       0.47856   0.44139   0.20263
C          C       0.02144   0.94139   0.29738
C          C       0.97856   0.94139   0.20263
C          C       0.48636   0.58603   0.21995
C          C       0.51364   0.58603   0.28005
C          C       0.98636   0.08603   0.21995
C          C       0.01364   0.08603   0.28005
C          C       0.51364   0.41397   0.28005
C          C       0.48636   0.41397   0.21995
C          C       0.01364   0.91397   0.28005
C          C       0.98636   0.91397   0.21995
C          C       0.44465   0.52224   0.11391
C          C       0.55535   0.52224   0.38609
C          C       0.94465   0.02224   0.11391
C          C       0.05535   0.02224   0.38609
C          C       0.55535   0.47776   0.38609
C          C       0.44465   0.47776   0.11391
C          C       0.05535   0.97776   0.38609
C          C       0.94465   0.97776   0.11391
C          C       0.41949   0.51414   0.03970
C          C       0.58051   0.51414   0.46031
C          C       0.91949   0.01414   0.03970
C          C       0.08051   0.01414   0.46031
C          C       0.58051   0.48586   0.46031
C          C       0.41949   0.48586   0.03970
C          C       0.08051   0.98586   0.46031
C          C       0.91949   0.98586   0.03970
C          C       0.45158   0.55028   0.14529
C          C       0.54842   0.55028   0.35471
C          C       0.95158   0.05028   0.14529
C          C       0.04842   0.05028   0.35471
C          C       0.54842   0.44972   0.35471
C          C       0.45158   0.44972   0.14529
C          C       0.04842   0.94972   0.35471
C          C       0.95158   0.94972   0.14529
C          C       0.57111   0.57187   0.36942
C          C       0.42889   0.57187   0.13058
C          C       0.07111   0.07187   0.36942
C          C       0.92889   0.07187   0.13058
C          C       0.42889   0.42813   0.13058
C          C       0.57111   0.42813   0.36942
C          C       0.92889   0.92813   0.13058
C          C       0.07111   0.92813   0.36942
C          C       0.56519   0.59799   0.44505
C          C       0.43481   0.59799   0.05495
C          C       0.06519   0.09799   0.44505
C          C       0.93481   0.09799   0.05495
C          C       0.43481   0.40201   0.05495
C          C       0.56519   0.40201   0.44505
C          C       0.93481   0.90201   0.05495
C          C       0.06519   0.90201   0.44505
C          C       0.58595   0.61855   0.45015
C          C       0.41405   0.61855   0.04985
C          C       0.08595   0.11855   0.45015
C          C       0.91405   0.11855   0.04985
C          C       0.41405   0.38145   0.04985
C          C       0.58595   0.38145   0.45015
C          C       0.91405   0.88145   0.04985
C          C       0.08595   0.88145   0.45015
C          C       0.61333   0.61320   0.38186
C          C       0.38667   0.61320   0.11815
C          C       0.11333   0.11320   0.38186
C          C       0.88667   0.11320   0.11815
C          C       0.38667   0.38680   0.11815
C          C       0.61333   0.38680   0.38186
C          C       0.88667   0.88680   0.11815
C          C       0.11333   0.88680   0.38186
C          C       0.61964   0.58710   0.31073
C          C       0.38036   0.58710   0.18928
C          C       0.11964   0.08710   0.31073
C          C       0.88036   0.08710   0.18928
C          C       0.38036   0.41290   0.18928
C          C       0.61964   0.41290   0.31073
C          C       0.88036   0.91290   0.18928
C          C       0.11964   0.91290   0.31073
C          C       0.59872   0.56677   0.30323
C          C       0.40128   0.56677   0.19677
C          C       0.09872   0.06677   0.30323
C          C       0.90128   0.06677   0.19677
C          C       0.40128   0.43323   0.19677
C          C       0.59872   0.43323   0.30323
C          C       0.90128   0.93323   0.19677
C          C       0.09872   0.93323   0.30323
N          N       0.63468   0.63420   0.37461
N          N       0.36532   0.63420   0.12539
N          N       0.13468   0.13420   0.37461
N          N       0.86532   0.13420   0.12539
N          N       0.36532   0.36580   0.12539
N          N       0.63468   0.36580   0.37461
N          N       0.86532   0.86580   0.12539
N          N       0.13468   0.86580   0.37461
C          C       0.62944   0.66020   0.40359
C          C       0.37056   0.66020   0.09641
C          C       0.12944   0.16020   0.40359
C          C       0.87056   0.16020   0.09641
C          C       0.37056   0.33980   0.09641
C          C       0.62944   0.33980   0.40359
C          C       0.87056   0.83980   0.09641
C          C       0.12944   0.83980   0.40359
C          C       0.65189   0.68104   0.38712
C          C       0.34811   0.68104   0.11288
C          C       0.15189   0.18104   0.38712
C          C       0.84811   0.18104   0.11288
C          C       0.34811   0.31896   0.11288
C          C       0.65189   0.31896   0.38712
C          C       0.84811   0.81896   0.11288
C          C       0.15189   0.81896   0.38712
C          C       0.64457   0.70906   0.38172
C          C       0.35543   0.70906   0.11828
C          C       0.14457   0.20906   0.38172
C          C       0.85543   0.20906   0.11828
C          C       0.35543   0.29094   0.11828
C          C       0.64457   0.29094   0.38172
C          C       0.85543   0.79094   0.11828
C          C       0.14457   0.79094   0.38172
C          C       0.66543   0.72916   0.35208
C          C       0.33457   0.72916   0.14793
C          C       0.16543   0.22916   0.35208
C          C       0.83457   0.22916   0.14793
C          C       0.33457   0.27084   0.14793
C          C       0.66543   0.27084   0.35208
C          C       0.83457   0.77084   0.14793
C          C       0.16543   0.77084   0.35208
C          C       0.69394   0.72167   0.32823
C          C       0.30606   0.72167   0.17177
C          C       0.19394   0.22167   0.32823
C          C       0.80606   0.22167   0.17177
C          C       0.30606   0.27833   0.17177
C          C       0.69394   0.27833   0.32823
C          C       0.80606   0.77833   0.17177
C          C       0.19394   0.77833   0.32823
C          C       0.70110   0.69351   0.33815
C          C       0.29890   0.69351   0.16185
C          C       0.20110   0.19351   0.33815
C          C       0.79890   0.19351   0.16185
C          C       0.29890   0.30649   0.16185
C          C       0.70110   0.30649   0.33815
C          C       0.79890   0.80649   0.16185
C          C       0.20110   0.80649   0.33815
C          C       0.68031   0.67332   0.36629
C          C       0.31969   0.67332   0.13371
C          C       0.18031   0.17332   0.36629
C          C       0.81969   0.17332   0.13371
C          C       0.31969   0.32668   0.13371
C          C       0.68031   0.32668   0.36629
C          C       0.81969   0.82668   0.13371
C          C       0.18031   0.82668   0.36629
C          C       0.71468   0.74181   0.28914
C          C       0.28532   0.74181   0.21087
C          C       0.21468   0.24181   0.28914
C          C       0.78532   0.24181   0.21087
C          C       0.28532   0.25819   0.21087
C          C       0.71468   0.25819   0.28914
C          C       0.78532   0.75819   0.21087
C          C       0.21468   0.75819   0.28914
C          C       0.73546   0.78157   0.19950
C          C       0.26454   0.78157   0.30050
C          C       0.23546   0.28157   0.19950
C          C       0.76454   0.28157   0.30050
C          C       0.26454   0.21843   0.30050
C          C       0.73546   0.21843   0.19950
C          C       0.76454   0.71843   0.30050
C          C       0.23546   0.71843   0.19950
C          C       0.75622   0.76193   0.22079
C          C       0.24378   0.76193   0.27921
C          C       0.25622   0.26193   0.22079
C          C       0.74378   0.26193   0.27921
C          C       0.24378   0.23807   0.27921
C          C       0.75622   0.23807   0.22079
C          C       0.74378   0.73807   0.27921
C          C       0.25622   0.73807   0.22079
O          O       0.73905   0.80515   0.14510
O          O       0.26095   0.80515   0.35491
O          O       0.23905   0.30515   0.14510
O          O       0.76095   0.30515   0.35491
O          O       0.26095   0.19485   0.35491
O          O       0.73905   0.19485   0.14510
O          O       0.76095   0.69485   0.35491
O          O       0.23905   0.69485   0.14510
N          N       0.70952   0.77044   0.24263
N          N       0.29048   0.77044   0.25737
N          N       0.20952   0.27044   0.24263
N          N       0.79048   0.27044   0.25737
N          N       0.29048   0.22956   0.25737
N          N       0.70952   0.22956   0.24263
N          N       0.79048   0.72956   0.25737
N          N       0.20952   0.72956   0.24263
C          C       0.68230   0.78366   0.21300
C          C       0.31770   0.78366   0.28700
C          C       0.18230   0.28366   0.21300
C          C       0.81770   0.28366   0.28700
C          C       0.31770   0.21634   0.28700
C          C       0.68230   0.21634   0.21300
C          C       0.81770   0.71634   0.28700
C          C       0.18230   0.71634   0.21300
C          C       0.67959   0.81041   0.31868
C          C       0.32041   0.81041   0.18132
C          C       0.17959   0.31041   0.31868
C          C       0.82041   0.31041   0.18132
C          C       0.32041   0.18959   0.18132
C          C       0.67959   0.18959   0.31868
C          C       0.82041   0.68959   0.18132
C          C       0.17959   0.68959   0.31868
C          C       0.65061   0.82277   0.29178
C          C       0.34939   0.82277   0.20822
C          C       0.15061   0.32277   0.29178
C          C       0.84939   0.32277   0.20822
C          C       0.34939   0.17723   0.20822
C          C       0.65061   0.17723   0.29178
C          C       0.84939   0.67723   0.20822
C          C       0.15061   0.67723   0.29178
C          C       0.64927   0.85141   0.37428
C          C       0.35073   0.85141   0.12572
C          C       0.14927   0.35141   0.37428
C          C       0.85073   0.35141   0.12572
C          C       0.35073   0.14859   0.12572
C          C       0.64927   0.14859   0.37428
C          C       0.85073   0.64859   0.12572
C          C       0.14927   0.64859   0.37428
H          H       0.47084   0.60320   0.18587
H          H       0.52916   0.60320   0.31414
H          H       0.97084   0.10320   0.18587
H          H       0.02916   0.10320   0.31414
H          H       0.52916   0.39680   0.31414
H          H       0.47084   0.39680   0.18587
H          H       0.02916   0.89680   0.31414
H          H       0.97084   0.89680   0.18587
H          H       0.40383   0.53044   0.49350
H          H       0.59617   0.53044   0.00650
H          H       0.90383   0.03044   0.49350
H          H       0.09617   0.03044   0.00650
H          H       0.59617   0.46956   0.00650
H          H       0.40383   0.46956   0.49350
H          H       0.09617   0.96956   0.00650
H          H       0.90383   0.96956   0.49350
H          H       0.54318   0.60265   0.00336
H          H       0.45682   0.60265   0.49664
H          H       0.04318   0.10265   0.00336
H          H       0.95682   0.10265   0.49664
H          H       0.45682   0.39735   0.49664
H          H       0.54318   0.39735   0.00336
H          H       0.95682   0.89735   0.49664
H          H       0.04318   0.89735   0.00336
H          H       0.58067   0.63973   0.00990
H          H       0.41933   0.63973   0.49010
H          H       0.08067   0.13973   0.00990
H          H       0.91933   0.13973   0.49010
H          H       0.41933   0.36027   0.49010
H          H       0.58067   0.36027   0.00990
H          H       0.91933   0.86027   0.49010
H          H       0.08067   0.86027   0.00990
H          H       0.64197   0.58231   0.25843
H          H       0.35803   0.58231   0.24157
H          H       0.14197   0.08231   0.25843
H          H       0.85803   0.08231   0.24157
H          H       0.35803   0.41769   0.24157
H          H       0.64197   0.41769   0.25843
H          H       0.85803   0.91769   0.24157
H          H       0.14197   0.91769   0.25843
H          H       0.60390   0.54562   0.24268
H          H       0.39610   0.54562   0.25733
H          H       0.10390   0.04562   0.24268
H          H       0.89610   0.04562   0.25733
H          H       0.39610   0.45438   0.25733
H          H       0.60390   0.45438   0.24268
H          H       0.89610   0.95438   0.25733
H          H       0.10390   0.95438   0.24268
H          H       0.60709   0.66718   0.44257
H          H       0.39291   0.66718   0.05743
H          H       0.10709   0.16718   0.44257
H          H       0.89291   0.16718   0.05743
H          H       0.39291   0.33282   0.05743
H          H       0.60709   0.33282   0.44257
H          H       0.89291   0.83282   0.05743
H          H       0.10709   0.83282   0.44257
H          H       0.62153   0.71557   0.40152
H          H       0.37847   0.71557   0.09848
H          H       0.12153   0.21557   0.40152
H          H       0.87847   0.21557   0.09848
H          H       0.37847   0.28443   0.09848
H          H       0.62153   0.28443   0.40152
H          H       0.87847   0.78443   0.09848
H          H       0.12153   0.78443   0.40152
H          H       0.65939   0.75202   0.34698
H          H       0.34061   0.75202   0.15302
H          H       0.15939   0.25202   0.34698
H          H       0.84061   0.25202   0.15302
H          H       0.34061   0.24798   0.15302
H          H       0.65939   0.24798   0.34698
H          H       0.84061   0.74798   0.15302
H          H       0.15939   0.74798   0.34698
H          H       0.72416   0.68684   0.32318
H          H       0.27584   0.68684   0.17682
H          H       0.22416   0.18684   0.32318
H          H       0.77584   0.18684   0.17682
H          H       0.27584   0.31316   0.17682
H          H       0.72416   0.31316   0.32318
H          H       0.77584   0.81316   0.17682
H          H       0.22416   0.81316   0.32318
H          H       0.68647   0.65050   0.37233
H          H       0.31353   0.65050   0.12767
H          H       0.18647   0.15050   0.37233
H          H       0.81353   0.15050   0.12767
H          H       0.31353   0.34950   0.12767
H          H       0.68647   0.34950   0.37233
H          H       0.81353   0.84950   0.12767
H          H       0.18647   0.84950   0.37233
H          H       0.66458   0.76894   0.25678
H          H       0.33542   0.76894   0.24322
H          H       0.16458   0.26894   0.25678
H          H       0.83542   0.26894   0.24322
H          H       0.33542   0.23106   0.24322
H          H       0.66458   0.23106   0.25678
H          H       0.83542   0.73106   0.24322
H          H       0.16458   0.73106   0.25678
H          H       0.68034   0.78856   0.06448
H          H       0.31966   0.78856   0.43552
H          H       0.18034   0.28856   0.06448
H          H       0.81966   0.28856   0.43552
H          H       0.31966   0.21144   0.43552
H          H       0.68034   0.21144   0.06448
H          H       0.81966   0.71144   0.43552
H          H       0.18034   0.71144   0.06448
H          H       0.69650   0.82567   0.26977
H          H       0.30350   0.82567   0.23023
H          H       0.19650   0.32567   0.26977
H          H       0.80350   0.32567   0.23023
H          H       0.30350   0.17433   0.23023
H          H       0.69650   0.17433   0.26977
H          H       0.80350   0.67433   0.23023
H          H       0.19650   0.67433   0.26977
H          H       0.68243   0.80593   0.46703
H          H       0.31757   0.80593   0.03297
H          H       0.18243   0.30593   0.46703
H          H       0.81757   0.30593   0.03297
H          H       0.31757   0.19407   0.03297
H          H       0.68243   0.19407   0.46703
H          H       0.81757   0.69407   0.03297
H          H       0.18243   0.69407   0.46703
H          H       0.63387   0.80897   0.35877
H          H       0.36613   0.80897   0.14123
H          H       0.13387   0.30897   0.35877
H          H       0.86613   0.30897   0.14123
H          H       0.36613   0.19103   0.14123
H          H       0.63387   0.19103   0.35877
H          H       0.86613   0.69103   0.14123
H          H       0.13387   0.69103   0.35877
H          H       0.64653   0.82430   0.14231
H          H       0.35347   0.82430   0.35769
H          H       0.14653   0.32430   0.14231
H          H       0.85347   0.32430   0.35769
H          H       0.35347   0.17570   0.35769
H          H       0.64653   0.17570   0.14231
H          H       0.85347   0.67570   0.35769
H          H       0.14653   0.67570   0.14231
H          H       0.63726   0.85040   0.00856
H          H       0.36274   0.85040   0.49144
H          H       0.13726   0.35040   0.00856
H          H       0.86274   0.35040   0.49144
H          H       0.36274   0.14960   0.49144
H          H       0.63726   0.14960   0.00856
H          H       0.86274   0.64960   0.49144
H          H       0.13726   0.64960   0.00856
H          H       0.63790   0.86610   0.28071
H          H       0.36210   0.86610   0.21929
H          H       0.13790   0.36610   0.28071
H          H       0.86210   0.36610   0.21929
H          H       0.36210   0.13390   0.21929
H          H       0.63790   0.13390   0.28071
H          H       0.86210   0.63390   0.21929
H          H       0.13790   0.63390   0.28071
H          H       0.67164   0.85931   0.39572
H          H       0.32836   0.85931   0.10428
H          H       0.17164   0.35931   0.39572
H          H       0.82836   0.35931   0.10428
H          H       0.32836   0.14069   0.10428
H          H       0.67164   0.14069   0.39572
H          H       0.82836   0.64069   0.10428
H          H       0.17164   0.64069   0.39572
N          N       0.50000   0.54151   0.25000
N          N       0.00000   0.04151   0.25000
N          N       0.50000   0.45849   0.25000
N          N       0.00000   0.95849   0.25000
N          N       0.46055   0.50000   0.15690
N          N       0.53945   0.50000   0.34310
N          N       0.96055   0.00000   0.15690
N          N       0.03945   0.00000   0.34310
Ni         Ni      0.50000   0.50000   0.25000
Ni         Ni      0.00000   0.00000   0.25000
C          C       0.47856   0.55861   0.70263
C          C       0.52144   0.55861   0.79737
C          C       0.97856   0.05861   0.70263
C          C       0.02144   0.05861   0.79737
C          C       0.52144   0.44139   0.79737
C          C       0.47856   0.44139   0.70263
C          C       0.02144   0.94139   0.79737
C          C       0.97856   0.94139   0.70263
C          C       0.48636   0.58603   0.71995
C          C       0.51364   0.58603   0.78005
C          C       0.98636   0.08603   0.71995
C          C       0.01364   0.08603   0.78005
C          C       0.51364   0.41397   0.78005
C          C       0.48636   0.41397   0.71995
C          C       0.01364   0.91397   0.78005
C          C       0.98636   0.91397   0.71995
C          C       0.44465   0.52224   0.61391
C          C       0.55535   0.52224   0.88609
C          C       0.94465   0.02224   0.61391
C          C       0.05535   0.02224   0.88609
C          C       0.55535   0.47776   0.88609
C          C       0.44465   0.47776   0.61391
C          C       0.05535   0.97776   0.88609
C          C       0.94465   0.97776   0.61391
C          C       0.41949   0.51414   0.53970
C          C       0.58051   0.51414   0.96031
C          C       0.91949   0.01414   0.53970
C          C       0.08051   0.01414   0.96031
C          C       0.58051   0.48586   0.96031
C          C       0.41949   0.48586   0.53970
C          C       0.08051   0.98586   0.96031
C          C       0.91949   0.98586   0.53970
C          C       0.45158   0.55028   0.64529
C          C       0.54842   0.55028   0.85471
C          C       0.95158   0.05028   0.64529
C          C       0.04842   0.05028   0.85471
C          C       0.54842   0.44972   0.85471
C          C       0.45158   0.44972   0.64529
C          C       0.04842   0.94972   0.85471
C          C       0.95158   0.94972   0.64529
C          C       0.57111   0.57187   0.86942
C          C       0.42889   0.57187   0.63058
C          C       0.07111   0.07187   0.86942
C          C       0.92889   0.07187   0.63058
C          C       0.42889   0.42813   0.63058
C          C       0.57111   0.42813   0.86942
C          C       0.92889   0.92813   0.63058
C          C       0.07111   0.92813   0.86942
C          C       0.56519   0.59799   0.94505
C          C       0.43481   0.59799   0.55495
C          C       0.06519   0.09799   0.94505
C          C       0.93481   0.09799   0.55495
C          C       0.43481   0.40201   0.55495
C          C       0.56519   0.40201   0.94505
C          C       0.93481   0.90201   0.55495
C          C       0.06519   0.90201   0.94505
C          C       0.58595   0.61855   0.95015
C          C       0.41405   0.61855   0.54985
C          C       0.08595   0.11855   0.95015
C          C       0.91405   0.11855   0.54985
C          C       0.41405   0.38145   0.54985
C          C       0.58595   0.38145   0.95015
C          C       0.91405   0.88145   0.54985
C          C       0.08595   0.88145   0.95015
C          C       0.61333   0.61320   0.88186
C          C       0.38667   0.61320   0.61814
C          C       0.11333   0.11320   0.88186
C          C       0.88667   0.11320   0.61814
C          C       0.38667   0.38680   0.61814
C          C       0.61333   0.38680   0.88186
C          C       0.88667   0.88680   0.61814
C          C       0.11333   0.88680   0.88186
C          C       0.61964   0.58710   0.81073
C          C       0.38036   0.58710   0.68928
C          C       0.11964   0.08710   0.81073
C          C       0.88036   0.08710   0.68928
C          C       0.38036   0.41290   0.68928
C          C       0.61964   0.41290   0.81073
C          C       0.88036   0.91290   0.68928
C          C       0.11964   0.91290   0.81073
C          C       0.59872   0.56677   0.80323
C          C       0.40128   0.56677   0.69678
C          C       0.09872   0.06677   0.80323
C          C       0.90128   0.06677   0.69678
C          C       0.40128   0.43323   0.69678
C          C       0.59872   0.43323   0.80323
C          C       0.90128   0.93323   0.69678
C          C       0.09872   0.93323   0.80323
N          N       0.63468   0.63420   0.87462
N          N       0.36532   0.63420   0.62538
N          N       0.13468   0.13420   0.87462
N          N       0.86532   0.13420   0.62538
N          N       0.36532   0.36580   0.62538
N          N       0.63468   0.36580   0.87462
N          N       0.86532   0.86580   0.62538
N          N       0.13468   0.86580   0.87462
C          C       0.62944   0.66020   0.90359
C          C       0.37056   0.66020   0.59641
C          C       0.12944   0.16020   0.90359
C          C       0.87056   0.16020   0.59641
C          C       0.37056   0.33980   0.59641
C          C       0.62944   0.33980   0.90359
C          C       0.87056   0.83980   0.59641
C          C       0.12944   0.83980   0.90359
C          C       0.65189   0.68104   0.88712
C          C       0.34811   0.68104   0.61288
C          C       0.15189   0.18104   0.88712
C          C       0.84811   0.18104   0.61288
C          C       0.34811   0.31896   0.61288
C          C       0.65189   0.31896   0.88712
C          C       0.84811   0.81896   0.61288
C          C       0.15189   0.81896   0.88712
C          C       0.64457   0.70906   0.88172
C          C       0.35543   0.70906   0.61828
C          C       0.14457   0.20906   0.88172
C          C       0.85543   0.20906   0.61828
C          C       0.35543   0.29094   0.61828
C          C       0.64457   0.29094   0.88172
C          C       0.85543   0.79094   0.61828
C          C       0.14457   0.79094   0.88172
C          C       0.66543   0.72916   0.85208
C          C       0.33457   0.72916   0.64792
C          C       0.16543   0.22916   0.85208
C          C       0.83457   0.22916   0.64792
C          C       0.33457   0.27084   0.64792
C          C       0.66543   0.27084   0.85208
C          C       0.83457   0.77084   0.64792
C          C       0.16543   0.77084   0.85208
C          C       0.69394   0.72167   0.82824
C          C       0.30606   0.72167   0.67177
C          C       0.19394   0.22167   0.82824
C          C       0.80606   0.22167   0.67177
C          C       0.30606   0.27833   0.67177
C          C       0.69394   0.27833   0.82824
C          C       0.80606   0.77833   0.67177
C          C       0.19394   0.77833   0.82824
C          C       0.70110   0.69351   0.83815
C          C       0.29890   0.69351   0.66185
C          C       0.20110   0.19351   0.83815
C          C       0.79890   0.19351   0.66185
C          C       0.29890   0.30649   0.66185
C          C       0.70110   0.30649   0.83815
C          C       0.79890   0.80649   0.66185
C          C       0.20110   0.80649   0.83815
C          C       0.68031   0.67332   0.86629
C          C       0.31969   0.67332   0.63371
C          C       0.18031   0.17332   0.86629
C          C       0.81969   0.17332   0.63371
C          C       0.31969   0.32668   0.63371
C          C       0.68031   0.32668   0.86629
C          C       0.81969   0.82668   0.63371
C          C       0.18031   0.82668   0.86629
C          C       0.71468   0.74181   0.78914
C          C       0.28532   0.74181   0.71087
C          C       0.21468   0.24181   0.78914
C          C       0.78532   0.24181   0.71087
C          C       0.28532   0.25819   0.71087
C          C       0.71468   0.25819   0.78914
C          C       0.78532   0.75819   0.71087
C          C       0.21468   0.75819   0.78914
C          C       0.73546   0.78157   0.69950
C          C       0.26454   0.78157   0.80050
C          C       0.23546   0.28157   0.69950
C          C       0.76454   0.28157   0.80050
C          C       0.26454   0.21843   0.80050
C          C       0.73546   0.21843   0.69950
C          C       0.76454   0.71843   0.80050
C          C       0.23546   0.71843   0.69950
C          C       0.75622   0.76193   0.72080
C          C       0.24378   0.76193   0.77921
C          C       0.25622   0.26193   0.72080
C          C       0.74378   0.26193   0.77921
C          C       0.24378   0.23807   0.77921
C          C       0.75622   0.23807   0.72080
C          C       0.74378   0.73807   0.77921
C          C       0.25622   0.73807   0.72080
O          O       0.73905   0.80515   0.64509
O          O       0.26095   0.80515   0.85491
O          O       0.23905   0.30515   0.64509
O          O       0.76095   0.30515   0.85491
O          O       0.26095   0.19485   0.85491
O          O       0.73905   0.19485   0.64509
O          O       0.76095   0.69485   0.85491
O          O       0.23905   0.69485   0.64509
N          N       0.70952   0.77044   0.74263
N          N       0.29048   0.77044   0.75737
N          N       0.20952   0.27044   0.74263
N          N       0.79048   0.27044   0.75737
N          N       0.29048   0.22956   0.75737
N          N       0.70952   0.22956   0.74263
N          N       0.79048   0.72956   0.75737
N          N       0.20952   0.72956   0.74263
C          C       0.68230   0.78366   0.71300
C          C       0.31770   0.78366   0.78700
C          C       0.18230   0.28366   0.71300
C          C       0.81770   0.28366   0.78700
C          C       0.31770   0.21634   0.78700
C          C       0.68230   0.21634   0.71300
C          C       0.81770   0.71634   0.78700
C          C       0.18230   0.71634   0.71300
C          C       0.67959   0.81041   0.81868
C          C       0.32041   0.81041   0.68132
C          C       0.17959   0.31041   0.81868
C          C       0.82041   0.31041   0.68132
C          C       0.32041   0.18959   0.68132
C          C       0.67959   0.18959   0.81868
C          C       0.82041   0.68959   0.68132
C          C       0.17959   0.68959   0.81868
C          C       0.65061   0.82277   0.79178
C          C       0.34939   0.82277   0.70823
C          C       0.15061   0.32277   0.79178
C          C       0.84939   0.32277   0.70823
C          C       0.34939   0.17723   0.70823
C          C       0.65061   0.17723   0.79178
C          C       0.84939   0.67723   0.70823
C          C       0.15061   0.67723   0.79178
C          C       0.64927   0.85141   0.87428
C          C       0.35073   0.85141   0.62572
C          C       0.14927   0.35141   0.87428
C          C       0.85073   0.35141   0.62572
C          C       0.35073   0.14859   0.62572
C          C       0.64927   0.14859   0.87428
C          C       0.85073   0.64859   0.62572
C          C       0.14927   0.64859   0.87428
H          H       0.47084   0.60320   0.68587
H          H       0.52916   0.60320   0.81414
H          H       0.97084   0.10320   0.68587
H          H       0.02916   0.10320   0.81414
H          H       0.52916   0.39680   0.81414
H          H       0.47084   0.39680   0.68587
H          H       0.02916   0.89680   0.81414
H          H       0.97084   0.89680   0.68587
H          H       0.40383   0.53044   0.99350
H          H       0.59617   0.53044   0.50650
H          H       0.90383   0.03044   0.99350
H          H       0.09617   0.03044   0.50650
H          H       0.59617   0.46956   0.50650
H          H       0.40383   0.46956   0.99350
H          H       0.09617   0.96956   0.50650
H          H       0.90383   0.96956   0.99350
H          H       0.54318   0.60265   0.50336
H          H       0.45682   0.60265   0.99664
H          H       0.04318   0.10265   0.50336
H          H       0.95682   0.10265   0.99664
H          H       0.45682   0.39735   0.99664
H          H       0.54318   0.39735   0.50336
H          H       0.95682   0.89735   0.99664
H          H       0.04318   0.89735   0.50336
H          H       0.58067   0.63973   0.50990
H          H       0.41933   0.63973   0.99010
H          H       0.08067   0.13973   0.50990
H          H       0.91933   0.13973   0.99010
H          H       0.41933   0.36027   0.99010
H          H       0.58067   0.36027   0.50990
H          H       0.91933   0.86027   0.99010
H          H       0.08067   0.86027   0.50990
H          H       0.64197   0.58231   0.75843
H          H       0.35803   0.58231   0.74157
H          H       0.14197   0.08231   0.75843
H          H       0.85803   0.08231   0.74157
H          H       0.35803   0.41769   0.74157
H          H       0.64197   0.41769   0.75843
H          H       0.85803   0.91769   0.74157
H          H       0.14197   0.91769   0.75843
H          H       0.60390   0.54562   0.74268
H          H       0.39610   0.54562   0.75733
H          H       0.10390   0.04562   0.74268
H          H       0.89610   0.04562   0.75733
H          H       0.39610   0.45438   0.75733
H          H       0.60390   0.45438   0.74268
H          H       0.89610   0.95438   0.75733
H          H       0.10390   0.95438   0.74268
H          H       0.60709   0.66718   0.94257
H          H       0.39291   0.66718   0.55743
H          H       0.10709   0.16718   0.94257
H          H       0.89291   0.16718   0.55743
H          H       0.39291   0.33282   0.55743
H          H       0.60709   0.33282   0.94257
H          H       0.89291   0.83282   0.55743
H          H       0.10709   0.83282   0.94257
H          H       0.62153   0.71557   0.90152
H          H       0.37847   0.71557   0.59848
H          H       0.12153   0.21557   0.90152
H          H       0.87847   0.21557   0.59848
H          H       0.37847   0.28443   0.59848
H          H       0.62153   0.28443   0.90152
H          H       0.87847   0.78443   0.59848
H          H       0.12153   0.78443   0.90152
H          H       0.65939   0.75202   0.84698
H          H       0.34061   0.75202   0.65302
H          H       0.15939   0.25202   0.84698
H          H       0.84061   0.25202   0.65302
H          H       0.34061   0.24798   0.65302
H          H       0.65939   0.24798   0.84698
H          H       0.84061   0.74798   0.65302
H          H       0.15939   0.74798   0.84698
H          H       0.72416   0.68684   0.82318
H          H       0.27584   0.68684   0.67682
H          H       0.22416   0.18684   0.82318
H          H       0.77584   0.18684   0.67682
H          H       0.27584   0.31316   0.67682
H          H       0.72416   0.31316   0.82318
H          H       0.77584   0.81316   0.67682
H          H       0.22416   0.81316   0.82318
H          H       0.68647   0.65050   0.87233
H          H       0.31353   0.65050   0.62767
H          H       0.18647   0.15050   0.87233
H          H       0.81353   0.15050   0.62767
H          H       0.31353   0.34950   0.62767
H          H       0.68647   0.34950   0.87233
H          H       0.81353   0.84950   0.62767
H          H       0.18647   0.84950   0.87233
H          H       0.66458   0.76894   0.75678
H          H       0.33542   0.76894   0.74322
H          H       0.16458   0.26894   0.75678
H          H       0.83542   0.26894   0.74322
H          H       0.33542   0.23106   0.74322
H          H       0.66458   0.23106   0.75678
H          H       0.83542   0.73106   0.74322
H          H       0.16458   0.73106   0.75678
H          H       0.68034   0.78856   0.56448
H          H       0.31966   0.78856   0.93553
H          H       0.18034   0.28856   0.56448
H          H       0.81966   0.28856   0.93553
H          H       0.31966   0.21144   0.93553
H          H       0.68034   0.21144   0.56448
H          H       0.81966   0.71144   0.93553
H          H       0.18034   0.71144   0.56448
H          H       0.69650   0.82567   0.76977
H          H       0.30350   0.82567   0.73023
H          H       0.19650   0.32567   0.76977
H          H       0.80350   0.32567   0.73023
H          H       0.30350   0.17433   0.73023
H          H       0.69650   0.17433   0.76977
H          H       0.80350   0.67433   0.73023
H          H       0.19650   0.67433   0.76977
H          H       0.68243   0.80593   0.96703
H          H       0.31757   0.80593   0.53297
H          H       0.18243   0.30593   0.96703
H          H       0.81757   0.30593   0.53297
H          H       0.31757   0.19407   0.53297
H          H       0.68243   0.19407   0.96703
H          H       0.81757   0.69407   0.53297
H          H       0.18243   0.69407   0.96703
H          H       0.63387   0.80897   0.85877
H          H       0.36613   0.80897   0.64123
H          H       0.13387   0.30897   0.85877
H          H       0.86613   0.30897   0.64123
H          H       0.36613   0.19103   0.64123
H          H       0.63387   0.19103   0.85877
H          H       0.86613   0.69103   0.64123
H          H       0.13387   0.69103   0.85877
H          H       0.64653   0.82430   0.64231
H          H       0.35347   0.82430   0.85769
H          H       0.14653   0.32430   0.64231
H          H       0.85347   0.32430   0.85769
H          H       0.35347   0.17570   0.85769
H          H       0.64653   0.17570   0.64231
H          H       0.85347   0.67570   0.85769
H          H       0.14653   0.67570   0.64231
H          H       0.63726   0.85040   0.50856
H          H       0.36274   0.85040   0.99144
H          H       0.13726   0.35040   0.50856
H          H       0.86274   0.35040   0.99144
H          H       0.36274   0.14960   0.99144
H          H       0.63726   0.14960   0.50856
H          H       0.86274   0.64960   0.99144
H          H       0.13726   0.64960   0.50856
H          H       0.63790   0.86610   0.78071
H          H       0.36210   0.86610   0.71929
H          H       0.13790   0.36610   0.78071
H          H       0.86210   0.36610   0.71929
H          H       0.36210   0.13390   0.71929
H          H       0.63790   0.13390   0.78071
H          H       0.86210   0.63390   0.71929
H          H       0.13790   0.63390   0.78071
H          H       0.67164   0.85931   0.89572
H          H       0.32836   0.85931   0.60428
H          H       0.17164   0.35931   0.89572
H          H       0.82836   0.35931   0.60428
H          H       0.32836   0.14069   0.60428
H          H       0.67164   0.14069   0.89572
H          H       0.82836   0.64069   0.60428
H          H       0.17164   0.64069   0.89572
N          N       0.50000   0.54151   0.75000
N          N       0.00000   0.04151   0.75000
N          N       0.50000   0.45849   0.75000
N          N       0.00000   0.95849   0.75000
N          N       0.46055   0.50000   0.65690
N          N       0.53945   0.50000   0.84310
N          N       0.96055   0.00000   0.65690
N          N       0.03945   0.00000   0.84310
Ni         Ni      0.50000   0.50000   0.75000
Ni         Ni      0.00000   0.00000   0.75000
