data_crystal

_cell_length_a    39.68160
_cell_length_b    39.68160
_cell_length_c    7.07580
_cell_angle_alpha 90.00000
_cell_angle_beta  90.00000
_cell_angle_gamma 120.00000

_space_group_name_Hall 'P 1'
_space_group_name_H-M_alt  'P 1'

loop_
_symmetry_equiv_pos_as_xyz
'x,y,z'

loop_
_atom_site_label
_atom_site_type_symbol
_atom_site_fract_x
_atom_site_fract_y
_atom_site_fract_z
C          C       0.37114   0.67317   0.44823
C          C       0.32683   0.69797   0.44823
C          C       0.30203   0.62886   0.44823
C          C       0.41766   0.65108   0.36120
C          C       0.34892   0.76658   0.36120
C          C       0.23342   0.58234   0.36120
C          C       0.45479   0.65550   0.37020
C          C       0.34450   0.79929   0.37020
C          C       0.20071   0.54521   0.37020
C          C       0.48486   0.68789   0.46149
C          C       0.31211   0.79697   0.46149
C          C       0.20303   0.51514   0.46149
C          C       0.47836   0.71742   0.02724
C          C       0.28258   0.76094   0.02724
C          C       0.23906   0.52164   0.02724
C          C       0.44164   0.71370   0.01526
C          C       0.28630   0.72794   0.01526
C          C       0.27206   0.55836   0.01526
C          C       0.41078   0.67973   0.43941
C          C       0.32027   0.73105   0.43941
C          C       0.26895   0.58922   0.43941
C          C       0.54052   0.67324   0.46834
C          C       0.32676   0.86728   0.46834
C          C       0.13272   0.45948   0.46834
N          N       0.52300   0.69340   0.49247
N          N       0.30660   0.82960   0.49247
N          N       0.17040   0.47700   0.49247
C          C       0.48919   0.60098   0.46893
C          C       0.39902   0.88821   0.46893
C          C       0.11179   0.51081   0.46893
C          C       0.47938   0.56259   0.42891
C          C       0.43741   0.91679   0.42891
C          C       0.08321   0.52062   0.42891
C          C       0.50580   0.55470   0.33354
C          C       0.44530   0.95110   0.33354
C          C       0.04890   0.49420   0.33354
C          C       0.54085   0.58599   0.26844
C          C       0.41401   0.95486   0.26844
C          C       0.04514   0.45915   0.26844
C          C       0.55010   0.62408   0.30644
C          C       0.37592   0.92602   0.30644
C          C       0.07398   0.44990   0.30644
C          C       0.52444   0.63239   0.40453
C          C       0.36761   0.89205   0.40453
C          C       0.10795   0.47556   0.40453
C          C       0.52457   0.50265   0.31546
C          C       0.49735   0.02192   0.31546
C          C       0.97808   0.47543   0.31546
C          C       0.51509   0.46479   0.28913
C          C       0.53521   0.05030   0.28913
C          C       0.94970   0.48491   0.28913
C          C       0.47761   0.43572   0.22735
C          C       0.56428   0.04189   0.22735
C          C       0.95811   0.52239   0.22735
C          C       0.44944   0.44723   0.20805
C          C       0.55277   0.00221   0.20805
C          C       0.99779   0.55056   0.20805
C          C       0.45867   0.48543   0.24793
C          C       0.51457   0.97324   0.24793
C          C       0.02676   0.54133   0.24793
C          C       0.49655   0.51411   0.29901
C          C       0.48589   0.98244   0.29901
C          C       0.01756   0.50345   0.29901
C          C       0.42988   0.36353   0.16806
C          C       0.63647   0.06635   0.16806
C          C       0.93365   0.57012   0.16806
C          C       0.42240   0.32633   0.11430
C          C       0.67367   0.09607   0.11430
C          C       0.90393   0.57760   0.11430
C          C       0.45301   0.31899   0.07684
C          C       0.68101   0.13402   0.07684
C          C       0.86598   0.54699   0.07684
C          C       0.49089   0.35077   0.08776
C          C       0.64923   0.14012   0.08776
C          C       0.85988   0.50911   0.08776
C          C       0.49812   0.38802   0.12191
C          C       0.61198   0.11010   0.12191
C          C       0.88990   0.50188   0.12191
C          C       0.46832   0.39534   0.17292
C          C       0.60466   0.07298   0.17292
C          C       0.92702   0.53168   0.17292
N          N       0.46436   0.26224   0.01387
N          N       0.73776   0.20212   0.01387
N          N       0.79788   0.53564   0.01387
C          C       0.44239   0.27810   0.02756
C          C       0.72190   0.16429   0.02756
C          C       0.83571   0.55761   0.02756
C          C       0.51772   0.25128   0.09965
C          C       0.74872   0.26644   0.09965
C          C       0.73356   0.48228   0.09965
C          C       0.55754   0.26362   0.11359
C          C       0.73638   0.29392   0.11359
C          C       0.70608   0.44246   0.11359
C          C       0.58508   0.30071   0.04408
C          C       0.69929   0.28437   0.04408
C          C       0.71563   0.41492   0.04408
C          C       0.57204   0.32274   0.44542
C          C       0.67726   0.24930   0.44542
C          C       0.75070   0.42796   0.44542
C          C       0.53236   0.30831   0.41995
C          C       0.69169   0.22405   0.41995
C          C       0.77595   0.46764   0.41995
C          C       0.50525   0.27514   0.01554
C          C       0.72486   0.23011   0.01554
C          C       0.76989   0.49475   0.01554
C          C       0.62730   0.31737   0.07125
C          C       0.68263   0.30993   0.07125
C          C       0.69007   0.37270   0.07125
N          N       0.56224   0.52600   0.36151
N          N       0.47400   0.03624   0.36151
N          N       0.96376   0.43776   0.36151
S          S       0.58673   0.50136   0.37345
S          S       0.49864   0.08537   0.37345
S          S       0.91463   0.41327   0.37345
N          N       0.54563   0.45966   0.31894
N          N       0.54034   0.08597   0.31894
N          N       0.91403   0.45437   0.31894
N          N       0.29526   0.65888   0.45342
N          N       0.34112   0.63638   0.45342
N          N       0.36362   0.70474   0.45342
N          N       0.65084   0.35674   0.06916
N          N       0.64326   0.29410   0.06916
N          N       0.70590   0.34916   0.06916
H          H       0.39446   0.62590   0.28901
H          H       0.37410   0.76856   0.28901
H          H       0.23144   0.60554   0.28901
H          H       0.45996   0.63462   0.30025
H          H       0.36538   0.82534   0.30025
H          H       0.17466   0.54004   0.30025
H          H       0.50179   0.74238   0.09653
H          H       0.25762   0.75941   0.09653
H          H       0.24059   0.49821   0.09653
H          H       0.43660   0.73595   0.07436
H          H       0.26405   0.70065   0.07436
H          H       0.29935   0.56340   0.07436
H          H       0.57154   0.68837   0.49710
H          H       0.31163   0.88317   0.49710
H          H       0.11683   0.42846   0.49710
H          H       0.47013   0.60566   0.05922
H          H       0.39434   0.86447   0.05922
H          H       0.13553   0.52987   0.05922
H          H       0.45211   0.53903   0.48197
H          H       0.46097   0.91308   0.48197
H          H       0.08692   0.54789   0.48197
H          H       0.56082   0.58102   0.18410
H          H       0.41898   0.97980   0.18410
H          H       0.02020   0.43918   0.18410
H          H       0.57773   0.64743   0.25689
H          H       0.35257   0.93030   0.25689
H          H       0.06970   0.42227   0.25689
H          H       0.42046   0.42779   0.15359
H          H       0.57221   0.99267   0.15359
H          H       0.00733   0.57954   0.15359
H          H       0.43607   0.49289   0.23161
H          H       0.50711   0.94318   0.23161
H          H       0.05682   0.56393   0.23161
H          H       0.40539   0.36686   0.20711
H          H       0.63314   0.03853   0.20711
H          H       0.96147   0.59461   0.20711
H          H       0.39235   0.30296   0.10783
H          H       0.69704   0.08939   0.10783
H          H       0.91061   0.60765   0.10783
H          H       0.51648   0.34915   0.07758
H          H       0.65085   0.16733   0.07758
H          H       0.83267   0.48352   0.07758
H          H       0.52805   0.41069   0.10956
H          H       0.58931   0.11736   0.10956
H          H       0.88264   0.47195   0.10956
H          H       0.41147   0.25787   0.01212
H          H       0.74213   0.15360   0.01212
H          H       0.84640   0.58853   0.01212
H          H       0.49633   0.22420   0.16316
H          H       0.77580   0.27213   0.16316
H          H       0.72787   0.50367   0.16316
H          H       0.56668   0.24567   0.18962
H          H       0.75433   0.32101   0.18962
H          H       0.67899   0.43332   0.18962
H          H       0.59294   0.34998   0.37950
H          H       0.65002   0.24296   0.37950
H          H       0.75704   0.40706   0.37950
H          H       0.52240   0.32336   0.33040
H          H       0.67664   0.19904   0.33040
H          H       0.80096   0.47760   0.33040
C          C       0.37114   0.67317   0.94823
C          C       0.32683   0.69797   0.94823
C          C       0.30203   0.62886   0.94823
C          C       0.41766   0.65108   0.86120
C          C       0.34892   0.76658   0.86120
C          C       0.23342   0.58234   0.86120
C          C       0.45479   0.65550   0.87021
C          C       0.34450   0.79929   0.87021
C          C       0.20071   0.54521   0.87021
C          C       0.48486   0.68789   0.96149
C          C       0.31211   0.79697   0.96149
C          C       0.20303   0.51514   0.96149
C          C       0.47836   0.71742   0.52724
C          C       0.28258   0.76094   0.52724
C          C       0.23906   0.52164   0.52724
C          C       0.44164   0.71370   0.51526
C          C       0.28630   0.72794   0.51526
C          C       0.27206   0.55836   0.51526
C          C       0.41078   0.67973   0.93941
C          C       0.32027   0.73105   0.93941
C          C       0.26895   0.58922   0.93941
C          C       0.54052   0.67324   0.96834
C          C       0.32676   0.86728   0.96834
C          C       0.13272   0.45948   0.96834
N          N       0.52300   0.69340   0.99247
N          N       0.30660   0.82960   0.99247
N          N       0.17040   0.47700   0.99247
C          C       0.48919   0.60098   0.96893
C          C       0.39902   0.88821   0.96893
C          C       0.11179   0.51081   0.96893
C          C       0.47938   0.56259   0.92891
C          C       0.43741   0.91679   0.92891
C          C       0.08321   0.52062   0.92891
C          C       0.50580   0.55470   0.83354
C          C       0.44530   0.95110   0.83354
C          C       0.04890   0.49420   0.83354
C          C       0.54085   0.58599   0.76844
C          C       0.41401   0.95486   0.76844
C          C       0.04514   0.45915   0.76844
C          C       0.55010   0.62408   0.80644
C          C       0.37592   0.92602   0.80644
C          C       0.07398   0.44990   0.80644
C          C       0.52444   0.63239   0.90453
C          C       0.36761   0.89205   0.90453
C          C       0.10795   0.47556   0.90453
C          C       0.52457   0.50265   0.81546
C          C       0.49735   0.02192   0.81546
C          C       0.97808   0.47543   0.81546
C          C       0.51509   0.46479   0.78912
C          C       0.53521   0.05030   0.78912
C          C       0.94970   0.48491   0.78912
C          C       0.47761   0.43572   0.72735
C          C       0.56428   0.04189   0.72735
C          C       0.95811   0.52239   0.72735
C          C       0.44944   0.44723   0.70805
C          C       0.55277   0.00221   0.70805
C          C       0.99779   0.55056   0.70805
C          C       0.45867   0.48543   0.74794
C          C       0.51457   0.97324   0.74794
C          C       0.02676   0.54133   0.74794
C          C       0.49655   0.51411   0.79900
C          C       0.48589   0.98244   0.79900
C          C       0.01756   0.50345   0.79900
C          C       0.42988   0.36353   0.66806
C          C       0.63647   0.06635   0.66806
C          C       0.93365   0.57012   0.66806
C          C       0.42240   0.32633   0.61430
C          C       0.67367   0.09607   0.61430
C          C       0.90393   0.57760   0.61430
C          C       0.45301   0.31899   0.57684
C          C       0.68101   0.13402   0.57684
C          C       0.86598   0.54699   0.57684
C          C       0.49089   0.35077   0.58776
C          C       0.64923   0.14012   0.58776
C          C       0.85988   0.50911   0.58776
C          C       0.49812   0.38802   0.62191
C          C       0.61198   0.11010   0.62191
C          C       0.88990   0.50188   0.62191
C          C       0.46832   0.39534   0.67292
C          C       0.60466   0.07298   0.67292
C          C       0.92702   0.53168   0.67292
N          N       0.46436   0.26224   0.51387
N          N       0.73776   0.20212   0.51387
N          N       0.79788   0.53564   0.51387
C          C       0.44239   0.27810   0.52756
C          C       0.72190   0.16429   0.52756
C          C       0.83571   0.55761   0.52756
C          C       0.51772   0.25128   0.59965
C          C       0.74872   0.26644   0.59965
C          C       0.73356   0.48228   0.59965
C          C       0.55754   0.26362   0.61359
C          C       0.73638   0.29392   0.61359
C          C       0.70608   0.44246   0.61359
C          C       0.58508   0.30071   0.54408
C          C       0.69929   0.28437   0.54408
C          C       0.71563   0.41492   0.54408
C          C       0.57204   0.32274   0.94542
C          C       0.67726   0.24930   0.94542
C          C       0.75070   0.42796   0.94542
C          C       0.53236   0.30831   0.91995
C          C       0.69169   0.22405   0.91995
C          C       0.77595   0.46764   0.91995
C          C       0.50525   0.27514   0.51554
C          C       0.72486   0.23011   0.51554
C          C       0.76989   0.49475   0.51554
C          C       0.62730   0.31737   0.57125
C          C       0.68263   0.30993   0.57125
C          C       0.69007   0.37270   0.57125
N          N       0.56224   0.52600   0.86151
N          N       0.47400   0.03624   0.86151
N          N       0.96376   0.43776   0.86151
S          S       0.58673   0.50136   0.87345
S          S       0.49864   0.08537   0.87345
S          S       0.91463   0.41327   0.87345
N          N       0.54563   0.45966   0.81894
N          N       0.54034   0.08597   0.81894
N          N       0.91403   0.45437   0.81894
N          N       0.29526   0.65888   0.95342
N          N       0.34112   0.63638   0.95342
N          N       0.36362   0.70474   0.95342
N          N       0.65084   0.35674   0.56916
N          N       0.64326   0.29410   0.56916
N          N       0.70590   0.34916   0.56916
H          H       0.39446   0.62590   0.78900
H          H       0.37410   0.76856   0.78900
H          H       0.23144   0.60554   0.78900
H          H       0.45996   0.63462   0.80025
H          H       0.36538   0.82534   0.80025
H          H       0.17466   0.54004   0.80025
H          H       0.50179   0.74238   0.59653
H          H       0.25762   0.75941   0.59653
H          H       0.24059   0.49821   0.59653
H          H       0.43660   0.73595   0.57436
H          H       0.26405   0.70065   0.57436
H          H       0.29935   0.56340   0.57436
H          H       0.57154   0.68837   0.99710
H          H       0.31163   0.88317   0.99710
H          H       0.11683   0.42846   0.99710
H          H       0.47013   0.60566   0.55922
H          H       0.39434   0.86447   0.55922
H          H       0.13553   0.52987   0.55922
H          H       0.45211   0.53903   0.98198
H          H       0.46097   0.91308   0.98198
H          H       0.08692   0.54789   0.98198
H          H       0.56082   0.58102   0.68409
H          H       0.41898   0.97980   0.68409
H          H       0.02020   0.43918   0.68409
H          H       0.57773   0.64743   0.75689
H          H       0.35257   0.93030   0.75689
H          H       0.06970   0.42227   0.75689
H          H       0.42046   0.42779   0.65359
H          H       0.57221   0.99267   0.65359
H          H       0.00733   0.57954   0.65359
H          H       0.43607   0.49289   0.73160
H          H       0.50711   0.94318   0.73160
H          H       0.05682   0.56393   0.73160
H          H       0.40539   0.36686   0.70711
H          H       0.63314   0.03853   0.70711
H          H       0.96147   0.59461   0.70711
H          H       0.39235   0.30296   0.60783
H          H       0.69704   0.08939   0.60783
H          H       0.91061   0.60765   0.60783
H          H       0.51648   0.34915   0.57758
H          H       0.65085   0.16733   0.57758
H          H       0.83267   0.48352   0.57758
H          H       0.52805   0.41069   0.60956
H          H       0.58931   0.11736   0.60956
H          H       0.88264   0.47195   0.60956
H          H       0.41147   0.25787   0.51212
H          H       0.74213   0.15360   0.51212
H          H       0.84640   0.58853   0.51212
H          H       0.49633   0.22420   0.66316
H          H       0.77580   0.27213   0.66316
H          H       0.72787   0.50367   0.66316
H          H       0.56668   0.24567   0.68962
H          H       0.75433   0.32101   0.68962
H          H       0.67899   0.43332   0.68962
H          H       0.59294   0.34998   0.87950
H          H       0.65002   0.24296   0.87950
H          H       0.75704   0.40706   0.87950
H          H       0.52240   0.32336   0.83040
H          H       0.67664   0.19904   0.83040
H          H       0.80096   0.47760   0.83040
