data_crystal

_cell_length_a    32.24300
_cell_length_b    32.24300
_cell_length_c    8.55160
_cell_angle_alpha 90.00000
_cell_angle_beta  90.00000
_cell_angle_gamma 120.00000

_space_group_name_Hall 'P 1'
_space_group_name_H-M_alt  'P 1'

loop_
_symmetry_equiv_pos_as_xyz
'x,y,z'

loop_
_atom_site_label
_atom_site_type_symbol
_atom_site_fract_x
_atom_site_fract_y
_atom_site_fract_z
C          C       0.40399   0.74497   0.42205
C          C       0.25503   0.65902   0.42205
C          C       0.34098   0.59601   0.42205
C          C       0.25503   0.59601   0.07795
C          C       0.34098   0.74497   0.07795
C          C       0.40399   0.65902   0.07795
C          C       0.59601   0.25503   0.07795
C          C       0.74497   0.34098   0.07795
C          C       0.65902   0.40399   0.07795
C          C       0.74497   0.40399   0.42205
C          C       0.65902   0.25503   0.42205
C          C       0.59601   0.34098   0.42205
C          C       0.42929   0.79508   0.42357
C          C       0.20492   0.63421   0.42357
C          C       0.36579   0.57071   0.42357
C          C       0.20492   0.57071   0.07643
C          C       0.36579   0.79508   0.07643
C          C       0.42929   0.63421   0.07643
C          C       0.57071   0.20492   0.07643
C          C       0.79508   0.36579   0.07643
C          C       0.63421   0.42929   0.07643
C          C       0.79508   0.42929   0.42357
C          C       0.63421   0.20492   0.42357
C          C       0.57071   0.36579   0.42357
C          C       0.41639   0.89632   0.42682
C          C       0.10368   0.52007   0.42682
C          C       0.47993   0.58361   0.42682
C          C       0.10368   0.58361   0.07318
C          C       0.47993   0.89632   0.07318
C          C       0.41639   0.52007   0.07318
C          C       0.58361   0.10368   0.07318
C          C       0.89632   0.47993   0.07318
C          C       0.52007   0.41639   0.07318
C          C       0.89632   0.41639   0.42682
C          C       0.52007   0.10368   0.42682
C          C       0.58361   0.47993   0.42682
C          C       0.44240   0.94949   0.42486
C          C       0.05051   0.49291   0.42486
C          C       0.50709   0.55760   0.42486
C          C       0.05051   0.55760   0.07513
C          C       0.50709   0.94949   0.07513
C          C       0.44240   0.49291   0.07513
C          C       0.55760   0.05051   0.07513
C          C       0.94949   0.50709   0.07513
C          C       0.49291   0.44240   0.07513
C          C       0.94949   0.44240   0.42486
C          C       0.49291   0.05051   0.42486
C          C       0.55760   0.50709   0.42486
C          C       0.42308   0.97497   0.34883
C          C       0.02503   0.44811   0.34883
C          C       0.55189   0.57692   0.34883
C          C       0.02503   0.57692   0.15117
C          C       0.55189   0.97497   0.15117
C          C       0.42308   0.44811   0.15117
C          C       0.57692   0.02503   0.15117
C          C       0.97497   0.55189   0.15117
C          C       0.44811   0.42308   0.15117
C          C       0.97497   0.42308   0.34883
C          C       0.44811   0.02503   0.34883
C          C       0.57692   0.55189   0.34883
O          O       0.37747   0.87423   0.36096
O          O       0.12577   0.50324   0.36096
O          O       0.49676   0.62253   0.36096
O          O       0.12577   0.62253   0.13905
O          O       0.49676   0.87423   0.13905
O          O       0.37747   0.50324   0.13905
O          O       0.62253   0.12577   0.13905
O          O       0.87423   0.49676   0.13905
O          O       0.50324   0.37747   0.13905
O          O       0.87423   0.37747   0.36096
O          O       0.50324   0.12577   0.36096
O          O       0.62253   0.49676   0.36096
H          H       0.41970   0.72668   0.36212
H          H       0.27332   0.69302   0.36212
H          H       0.30698   0.58030   0.36212
H          H       0.27332   0.58030   0.13788
H          H       0.30698   0.72668   0.13788
H          H       0.41970   0.69302   0.13788
H          H       0.58030   0.27332   0.13788
H          H       0.72668   0.30698   0.13788
H          H       0.69302   0.41970   0.13788
H          H       0.72668   0.41970   0.36212
H          H       0.69302   0.27332   0.36212
H          H       0.58030   0.30698   0.36212
H          H       0.46386   0.81466   0.36528
H          H       0.18534   0.64920   0.36528
H          H       0.35080   0.53614   0.36528
H          H       0.18534   0.53614   0.13472
H          H       0.35080   0.81466   0.13472
H          H       0.46386   0.64920   0.13472
H          H       0.53614   0.18534   0.13472
H          H       0.81466   0.35080   0.13472
H          H       0.64920   0.46386   0.13472
H          H       0.81466   0.46386   0.36528
H          H       0.64920   0.18534   0.36528
H          H       0.53614   0.35080   0.36528
H          H       0.38855   0.95579   0.28934
H          H       0.04421   0.43276   0.28934
H          H       0.56724   0.61145   0.28934
H          H       0.04421   0.61145   0.21066
H          H       0.56724   0.95579   0.21066
H          H       0.38855   0.43276   0.21066
H          H       0.61145   0.04421   0.21066
H          H       0.95579   0.56724   0.21066
H          H       0.43276   0.38855   0.21066
H          H       0.95579   0.38855   0.28934
H          H       0.43276   0.04421   0.28934
H          H       0.61145   0.56724   0.28934
C          C       0.35945   0.71891   0.00000
C          C       0.28109   0.64054   0.00000
C          C       0.35946   0.64055   0.00000
C          C       0.64055   0.28109   0.00000
C          C       0.71891   0.35946   0.00000
C          C       0.64054   0.35945   0.00000
C          C       0.41020   0.82039   0.00000
C          C       0.17961   0.58981   0.00000
C          C       0.41019   0.58980   0.00000
C          C       0.58980   0.17961   0.00000
C          C       0.82039   0.41019   0.00000
C          C       0.58981   0.41020   0.00000
N          N       0.43593   0.87186   0.00000
N          N       0.12814   0.56407   0.00000
N          N       0.43593   0.56407   0.00000
N          N       0.56407   0.12814   0.00000
N          N       0.87186   0.43593   0.00000
N          N       0.56407   0.43593   0.00000
C          C       0.48734   0.97468   0.00000
C          C       0.02532   0.51266   0.00000
C          C       0.48734   0.51266   0.00000
C          C       0.51266   0.02532   0.00000
C          C       0.97468   0.48734   0.00000
C          C       0.51266   0.48734   0.00000
N          N       0.33333   0.66667   0.00000
N          N       0.66667   0.33333   0.00000
C          C       0.40399   0.74497   0.92205
C          C       0.25503   0.65902   0.92205
C          C       0.34098   0.59601   0.92205
C          C       0.25503   0.59601   0.57795
C          C       0.34098   0.74497   0.57795
C          C       0.40399   0.65902   0.57795
C          C       0.59601   0.25503   0.57795
C          C       0.74497   0.34098   0.57795
C          C       0.65902   0.40399   0.57795
C          C       0.74497   0.40399   0.92205
C          C       0.65902   0.25503   0.92205
C          C       0.59601   0.34098   0.92205
C          C       0.42929   0.79508   0.92357
C          C       0.20492   0.63421   0.92357
C          C       0.36579   0.57071   0.92357
C          C       0.20492   0.57071   0.57642
C          C       0.36579   0.79508   0.57642
C          C       0.42929   0.63421   0.57642
C          C       0.57071   0.20492   0.57642
C          C       0.79508   0.36579   0.57642
C          C       0.63421   0.42929   0.57642
C          C       0.79508   0.42929   0.92357
C          C       0.63421   0.20492   0.92357
C          C       0.57071   0.36579   0.92357
C          C       0.41639   0.89632   0.92682
C          C       0.10368   0.52007   0.92682
C          C       0.47993   0.58361   0.92682
C          C       0.10368   0.58361   0.57318
C          C       0.47993   0.89632   0.57318
C          C       0.41639   0.52007   0.57318
C          C       0.58361   0.10368   0.57318
C          C       0.89632   0.47993   0.57318
C          C       0.52007   0.41639   0.57318
C          C       0.89632   0.41639   0.92682
C          C       0.52007   0.10368   0.92682
C          C       0.58361   0.47993   0.92682
C          C       0.44240   0.94949   0.92486
C          C       0.05051   0.49291   0.92486
C          C       0.50709   0.55760   0.92486
C          C       0.05051   0.55760   0.57514
C          C       0.50709   0.94949   0.57514
C          C       0.44240   0.49291   0.57514
C          C       0.55760   0.05051   0.57514
C          C       0.94949   0.50709   0.57514
C          C       0.49291   0.44240   0.57514
C          C       0.94949   0.44240   0.92486
C          C       0.49291   0.05051   0.92486
C          C       0.55760   0.50709   0.92486
C          C       0.42308   0.97497   0.84883
C          C       0.02503   0.44811   0.84883
C          C       0.55189   0.57692   0.84883
C          C       0.02503   0.57692   0.65117
C          C       0.55189   0.97497   0.65117
C          C       0.42308   0.44811   0.65117
C          C       0.57692   0.02503   0.65117
C          C       0.97497   0.55189   0.65117
C          C       0.44811   0.42308   0.65117
C          C       0.97497   0.42308   0.84883
C          C       0.44811   0.02503   0.84883
C          C       0.57692   0.55189   0.84883
O          O       0.37747   0.87423   0.86096
O          O       0.12577   0.50324   0.86096
O          O       0.49676   0.62253   0.86096
O          O       0.12577   0.62253   0.63905
O          O       0.49676   0.87423   0.63905
O          O       0.37747   0.50324   0.63905
O          O       0.62253   0.12577   0.63905
O          O       0.87423   0.49676   0.63905
O          O       0.50324   0.37747   0.63905
O          O       0.87423   0.37747   0.86096
O          O       0.50324   0.12577   0.86096
O          O       0.62253   0.49676   0.86096
H          H       0.41970   0.72668   0.86212
H          H       0.27332   0.69302   0.86212
H          H       0.30698   0.58030   0.86212
H          H       0.27332   0.58030   0.63788
H          H       0.30698   0.72668   0.63788
H          H       0.41970   0.69302   0.63788
H          H       0.58030   0.27332   0.63788
H          H       0.72668   0.30698   0.63788
H          H       0.69302   0.41970   0.63788
H          H       0.72668   0.41970   0.86212
H          H       0.69302   0.27332   0.86212
H          H       0.58030   0.30698   0.86212
H          H       0.46386   0.81466   0.86528
H          H       0.18534   0.64920   0.86528
H          H       0.35080   0.53614   0.86528
H          H       0.18534   0.53614   0.63472
H          H       0.35080   0.81466   0.63472
H          H       0.46386   0.64920   0.63472
H          H       0.53614   0.18534   0.63472
H          H       0.81466   0.35080   0.63472
H          H       0.64920   0.46386   0.63472
H          H       0.81466   0.46386   0.86528
H          H       0.64920   0.18534   0.86528
H          H       0.53614   0.35080   0.86528
H          H       0.38855   0.95579   0.78934
H          H       0.04421   0.43276   0.78934
H          H       0.56724   0.61145   0.78934
H          H       0.04421   0.61145   0.71065
H          H       0.56724   0.95579   0.71065
H          H       0.38855   0.43276   0.71065
H          H       0.61145   0.04421   0.71065
H          H       0.95579   0.56724   0.71065
H          H       0.43276   0.38855   0.71065
H          H       0.95579   0.38855   0.78934
H          H       0.43276   0.04421   0.78934
H          H       0.61145   0.56724   0.78934
C          C       0.35945   0.71891   0.50000
C          C       0.28109   0.64054   0.50000
C          C       0.35946   0.64055   0.50000
C          C       0.64055   0.28109   0.50000
C          C       0.71891   0.35946   0.50000
C          C       0.64054   0.35945   0.50000
C          C       0.41020   0.82039   0.50000
C          C       0.17961   0.58981   0.50000
C          C       0.41019   0.58980   0.50000
C          C       0.58980   0.17961   0.50000
C          C       0.82039   0.41019   0.50000
C          C       0.58981   0.41020   0.50000
N          N       0.43593   0.87186   0.50000
N          N       0.12814   0.56407   0.50000
N          N       0.43593   0.56407   0.50000
N          N       0.56407   0.12814   0.50000
N          N       0.87186   0.43593   0.50000
N          N       0.56407   0.43593   0.50000
C          C       0.48734   0.97468   0.50000
C          C       0.02532   0.51266   0.50000
C          C       0.48734   0.51266   0.50000
C          C       0.51266   0.02532   0.50000
C          C       0.97468   0.48734   0.50000
C          C       0.51266   0.48734   0.50000
N          N       0.33333   0.66667   0.50000
N          N       0.66667   0.33333   0.50000
