data_crystal

_cell_length_a    37.87630
_cell_length_b    37.87630
_cell_length_c    7.89000
_cell_angle_alpha 90.00000
_cell_angle_beta  90.00000
_cell_angle_gamma 120.00000

_space_group_name_Hall 'P 1'
_space_group_name_H-M_alt  'P 1'

loop_
_symmetry_equiv_pos_as_xyz
 'x,y,z'

loop_
_atom_site_label
_atom_site_type_symbol
_atom_site_fract_x
_atom_site_fract_y
_atom_site_fract_z
C          C       0.63449   0.34086   0.00051
C          C       0.65914   0.29363   0.00051
C          C       0.70637   0.36551   0.00051
C          C       0.36551   0.65914   0.00051
C          C       0.34086   0.70637   0.00051
C          C       0.29363   0.63449   0.00051
N          N       0.62664   0.30103   0.00060
N          N       0.69897   0.32561   0.00060
N          N       0.67439   0.37336   0.00060
N          N       0.37336   0.69897   0.00060
N          N       0.30103   0.67439   0.00060
N          N       0.32561   0.62664   0.00060
C          C       0.60270   0.34866   0.00041
C          C       0.65134   0.25404   0.00041
C          C       0.74596   0.39730   0.00041
C          C       0.39730   0.65134   0.00041
C          C       0.34866   0.74596   0.00041
C          C       0.25404   0.60270   0.00041
C          C       0.61055   0.38849   0.00032
C          C       0.61151   0.22206   0.00032
C          C       0.77794   0.38945   0.00032
C          C       0.38945   0.61151   0.00032
C          C       0.38849   0.77794   0.00032
C          C       0.22206   0.61055   0.00032
C          C       0.57876   0.39629   0.00021
C          C       0.60371   0.18247   0.00021
C          C       0.81753   0.42124   0.00021
C          C       0.42124   0.60371   0.00021
C          C       0.39629   0.81753   0.00021
C          C       0.18247   0.57876   0.00021
C          C       0.53903   0.36445   0.00021
C          C       0.63555   0.17458   0.00021
C          C       0.82542   0.46097   0.00021
C          C       0.46097   0.63555   0.00021
C          C       0.36445   0.82542   0.00021
C          C       0.17458   0.53903   0.00021
C          C       0.53108   0.32482   0.00030
C          C       0.67518   0.20626   0.00030
C          C       0.79374   0.46892   0.00030
C          C       0.46892   0.67518   0.00030
C          C       0.32482   0.79374   0.00030
C          C       0.20626   0.53108   0.00030
C          C       0.56297   0.31682   0.00040
C          C       0.68318   0.24615   0.00040
C          C       0.75385   0.43703   0.00040
C          C       0.43703   0.68318   0.00040
C          C       0.31682   0.75385   0.00040
C          C       0.24615   0.56297   0.00040
N          N       0.50714   0.37244   0.00011
N          N       0.62756   0.13470   0.00011
N          N       0.86530   0.49286   0.00011
N          N       0.49286   0.62756   0.00011
N          N       0.37244   0.86530   0.00011
N          N       0.13470   0.50714   0.00011
N          N       0.51509   0.41208   0.00002
N          N       0.58792   0.10301   0.00002
N          N       0.89699   0.48491   0.00002
N          N       0.48491   0.58792   0.00002
N          N       0.41208   0.89699   0.00002
N          N       0.10301   0.51509   0.00002
C          C       0.48320   0.42007   0.49992
C          C       0.57993   0.06313   0.49992
C          C       0.93687   0.51680   0.49992
C          C       0.51680   0.57993   0.49992
C          C       0.42007   0.93687   0.49992
C          C       0.06313   0.48320   0.49992
C          C       0.49115   0.45971   0.49983
C          C       0.54029   0.03144   0.49983
C          C       0.96856   0.50885   0.49983
C          C       0.50885   0.54029   0.49983
C          C       0.45971   0.96856   0.49983
C          C       0.03144   0.49115   0.49983
C          C       0.53089   0.49154   0.49983
C          C       0.50846   0.03935   0.49983
C          C       0.96065   0.46911   0.49983
C          C       0.46911   0.50846   0.49983
C          C       0.49154   0.96065   0.49983
C          C       0.03935   0.53089   0.49983
C          C       0.45927   0.46770   0.49973
C          C       0.53230   0.99157   0.49973
C          C       0.00843   0.54073   0.49973
C          C       0.54073   0.53230   0.49973
C          C       0.46770   0.00843   0.49973
C          C       0.99157   0.45927   0.49973
H          H       0.64335   0.41483   0.00032
H          H       0.58517   0.22852   0.00032
H          H       0.77148   0.35665   0.00032
H          H       0.35665   0.58517   0.00032
H          H       0.41483   0.77148   0.00032
H          H       0.22852   0.64335   0.00032
H          H       0.58522   0.42909   0.00014
H          H       0.57091   0.15613   0.00014
H          H       0.84387   0.41478   0.00014
H          H       0.41478   0.57091   0.00014
H          H       0.42909   0.84387   0.00014
H          H       0.15613   0.58522   0.00014
H          H       0.49823   0.29856   0.00029
H          H       0.70144   0.19967   0.00029
H          H       0.80033   0.50177   0.00029
H          H       0.50177   0.70144   0.00029
H          H       0.29856   0.80033   0.00029
H          H       0.19967   0.49823   0.00029
H          H       0.55638   0.28398   0.00047
H          H       0.71602   0.27240   0.00047
H          H       0.72760   0.44362   0.00047
H          H       0.44362   0.71602   0.00047
H          H       0.28398   0.72760   0.00047
H          H       0.27240   0.55638   0.00047
H          H       0.47516   0.34688   0.00011
H          H       0.65312   0.12828   0.00011
H          H       0.87172   0.52484   0.00011
H          H       0.52484   0.65312   0.00011
H          H       0.34688   0.87172   0.00011
H          H       0.12828   0.47516   0.00011
H          H       0.93037   0.44461   0.00229
H          H       0.98272   0.42107   0.00060
H          H       0.51111   0.07236   0.49947
H          H       0.43762   0.01802   0.00200
H          H       0.61144   0.05942   0.49751
H          H       0.44997   0.38899   0.00263
H          H       0.43156   0.44259   0.00199
H          H       0.44955   0.52121   0.00128
H          H       0.55360   0.48760   0.49811
H          H       0.56836   0.56049   0.49746
H          H       0.55324   0.61242   0.49695
H          H       0.06718   0.55856   0.49756
H          H       0.01529   0.57697   0.49903
H          H       0.39427   0.94924   0.00185
H          H       0.48480   0.92860   0.00051
H          H       0.54655   0.97294   0.49872
H          H       0.94185   0.54944   0.49938
C          C       0.63449   0.34086   0.50050
C          C       0.65914   0.29363   0.50050
C          C       0.70637   0.36551   0.50050
C          C       0.36551   0.65914   0.50050
C          C       0.34086   0.70637   0.50050
C          C       0.29363   0.63449   0.50050
N          N       0.62664   0.30103   0.50060
N          N       0.69897   0.32561   0.50060
N          N       0.67439   0.37336   0.50060
N          N       0.37336   0.69897   0.50060
N          N       0.30103   0.67439   0.50060
N          N       0.32561   0.62664   0.50060
C          C       0.60270   0.34866   0.50041
C          C       0.65134   0.25404   0.50041
C          C       0.74596   0.39730   0.50041
C          C       0.39730   0.65134   0.50041
C          C       0.34866   0.74596   0.50041
C          C       0.25404   0.60270   0.50041
C          C       0.61055   0.38849   0.50032
C          C       0.61151   0.22206   0.50032
C          C       0.77794   0.38945   0.50032
C          C       0.38945   0.61151   0.50032
C          C       0.38849   0.77794   0.50032
C          C       0.22206   0.61055   0.50032
C          C       0.57876   0.39629   0.50022
C          C       0.60371   0.18247   0.50022
C          C       0.81753   0.42124   0.50022
C          C       0.42124   0.60371   0.50022
C          C       0.39629   0.81753   0.50022
C          C       0.18247   0.57876   0.50022
C          C       0.53903   0.36445   0.50021
C          C       0.63555   0.17458   0.50021
C          C       0.82542   0.46097   0.50021
C          C       0.46097   0.63555   0.50021
C          C       0.36445   0.82542   0.50021
C          C       0.17458   0.53903   0.50021
C          C       0.53108   0.32482   0.50030
C          C       0.67518   0.20626   0.50030
C          C       0.79374   0.46892   0.50030
C          C       0.46892   0.67518   0.50030
C          C       0.32482   0.79374   0.50030
C          C       0.20626   0.53108   0.50030
C          C       0.56297   0.31682   0.50040
C          C       0.68318   0.24615   0.50040
C          C       0.75385   0.43703   0.50040
C          C       0.43703   0.68318   0.50040
C          C       0.31682   0.75385   0.50040
C          C       0.24615   0.56297   0.50040
N          N       0.50714   0.37244   0.50011
N          N       0.62756   0.13470   0.50011
N          N       0.86530   0.49286   0.50011
N          N       0.49286   0.62756   0.50011
N          N       0.37244   0.86530   0.50011
N          N       0.13470   0.50714   0.50011
N          N       0.51509   0.41208   0.50002
N          N       0.58792   0.10301   0.50002
N          N       0.89699   0.48491   0.50002
N          N       0.48491   0.58792   0.50002
N          N       0.41208   0.89699   0.50002
N          N       0.10301   0.51509   0.50002
C          C       0.48320   0.42007   0.99992
C          C       0.57993   0.06313   0.99992
C          C       0.93687   0.51680   0.99992
C          C       0.51680   0.57993   0.99992
C          C       0.42007   0.93687   0.99992
C          C       0.06313   0.48320   0.99992
C          C       0.49115   0.45971   0.99983
C          C       0.54029   0.03144   0.99983
C          C       0.96856   0.50885   0.99983
C          C       0.50885   0.54029   0.99983
C          C       0.45971   0.96856   0.99983
C          C       0.03144   0.49115   0.99983
C          C       0.53089   0.49154   0.99984
C          C       0.50846   0.03935   0.99984
C          C       0.96065   0.46911   0.99984
C          C       0.46911   0.50846   0.99984
C          C       0.49154   0.96065   0.99984
C          C       0.03935   0.53089   0.99984
C          C       0.45927   0.46770   0.99973
C          C       0.53230   0.99157   0.99973
C          C       0.00843   0.54073   0.99973
C          C       0.54073   0.53230   0.99973
C          C       0.46770   0.00843   0.99973
C          C       0.99157   0.45927   0.99973
H          H       0.64335   0.41483   0.50032
H          H       0.58517   0.22852   0.50032
H          H       0.77148   0.35665   0.50032
H          H       0.35665   0.58517   0.50032
H          H       0.41483   0.77148   0.50032
H          H       0.22852   0.64335   0.50032
H          H       0.58522   0.42909   0.50014
H          H       0.57091   0.15613   0.50014
H          H       0.84387   0.41478   0.50014
H          H       0.41478   0.57091   0.50014
H          H       0.42909   0.84387   0.50014
H          H       0.15613   0.58522   0.50014
H          H       0.49823   0.29856   0.50029
H          H       0.70144   0.19967   0.50029
H          H       0.80033   0.50177   0.50029
H          H       0.50177   0.70144   0.50029
H          H       0.29856   0.80033   0.50029
H          H       0.19967   0.49823   0.50029
H          H       0.55638   0.28398   0.50047
H          H       0.71602   0.27240   0.50047
H          H       0.72760   0.44362   0.50047
H          H       0.44362   0.71602   0.50047
H          H       0.28398   0.72760   0.50047
H          H       0.27240   0.55638   0.50047
H          H       0.47516   0.34688   0.50011
H          H       0.65312   0.12828   0.50011
H          H       0.87172   0.52484   0.50011
H          H       0.52484   0.65312   0.50011
H          H       0.34688   0.87172   0.50011
H          H       0.12828   0.47516   0.50011
H          H       0.93037   0.44461   0.50229
H          H       0.98272   0.42107   0.50060
H          H       0.51111   0.07236   0.99947
H          H       0.43762   0.01802   0.50200
H          H       0.61144   0.05942   0.99751
H          H       0.44997   0.38899   0.50263
H          H       0.43156   0.44259   0.50199
H          H       0.44955   0.52121   0.50128
H          H       0.55360   0.48760   0.99811
H          H       0.56836   0.56049   0.99747
H          H       0.55324   0.61242   0.99696
H          H       0.06718   0.55856   0.99756
H          H       0.01529   0.57697   0.99903
H          H       0.39427   0.94924   0.50185
H          H       0.48480   0.92860   0.50051
H          H       0.54655   0.97294   0.99872
H          H       0.94185   0.54944   0.99938
