data_crystal

_cell_length_a    35.50820
_cell_length_b    35.50820
_cell_length_c    6.99800
_cell_angle_alpha 90.00000
_cell_angle_beta  90.00000
_cell_angle_gamma 120.00000

_space_group_name_Hall 'P 1'
_space_group_name_H-M_alt  'P 1'

loop_
_symmetry_equiv_pos_as_xyz
'x,y,z'

loop_
_atom_site_label
_atom_site_type_symbol
_atom_site_fract_x
_atom_site_fract_y
_atom_site_fract_z
N          N       0.62330   0.30741   0.00000
N          N       0.69259   0.31589   0.00000
N          N       0.68411   0.37670   0.00000
N          N       0.37670   0.69259   0.00000
N          N       0.30741   0.68411   0.00000
N          N       0.31589   0.62330   0.00000
C          C       0.65018   0.29007   0.00000
C          C       0.70993   0.36011   0.00000
C          C       0.63989   0.34982   0.00000
C          C       0.34982   0.70993   0.00000
C          C       0.29007   0.63989   0.00000
C          C       0.36011   0.65018   0.00000
C          C       0.63291   0.24611   0.00000
C          C       0.75389   0.38680   0.00000
C          C       0.61320   0.36709   0.00000
C          C       0.36709   0.75389   0.00000
C          C       0.24611   0.61320   0.00000
C          C       0.38680   0.63291   0.00000
C          C       0.58850   0.21918   0.00000
C          C       0.78082   0.36932   0.00000
C          C       0.63068   0.41150   0.00000
C          C       0.41150   0.78082   0.00000
C          C       0.21918   0.63068   0.00000
C          C       0.36932   0.58850   0.00000
C          C       0.57142   0.17509   0.00000
C          C       0.82491   0.39633   0.00000
C          C       0.60367   0.42858   0.00000
C          C       0.42858   0.82491   0.00000
C          C       0.17509   0.60367   0.00000
C          C       0.39633   0.57142   0.00000
C          C       0.59830   0.15775   0.00000
C          C       0.84225   0.44055   0.00000
C          C       0.55945   0.40170   0.00000
C          C       0.40170   0.84225   0.00000
C          C       0.15775   0.55945   0.00000
C          C       0.44055   0.59830   0.00000
C          C       0.64226   0.18450   0.00000
C          C       0.81550   0.45776   0.00000
C          C       0.54224   0.35774   0.00000
C          C       0.35774   0.81550   0.00000
C          C       0.18450   0.54224   0.00000
C          C       0.45776   0.64226   0.00000
C          C       0.65979   0.22877   0.00000
C          C       0.77123   0.43102   0.00000
C          C       0.56898   0.34021   0.00000
C          C       0.34021   0.77123   0.00000
C          C       0.22877   0.56898   0.00000
C          C       0.43102   0.65979   0.00000
N          N       0.58103   0.11379   0.00000
N          N       0.88621   0.46724   0.00000
N          N       0.53276   0.41897   0.00000
N          N       0.41897   0.88621   0.00000
N          N       0.11379   0.53276   0.00000
N          N       0.46724   0.58103   0.00000
C          C       0.53708   0.08704   0.00000
C          C       0.91296   0.45004   0.00000
C          C       0.54996   0.46292   0.00000
C          C       0.46292   0.91296   0.00000
C          C       0.08704   0.54996   0.00000
C          C       0.45004   0.53708   0.00000
C          C       0.52162   0.04348   0.00000
C          C       0.95652   0.47814   0.00000
C          C       0.52186   0.47838   0.00000
C          C       0.47838   0.95652   0.00000
C          C       0.04348   0.52186   0.00000
C          C       0.47814   0.52162   0.00000
C          C       0.47688   0.02091   0.00000
C          C       0.97909   0.45597   0.00000
C          C       0.54403   0.52312   0.00000
C          C       0.52312   0.97909   0.00000
C          C       0.02091   0.54403   0.00000
C          C       0.45597   0.47688   0.00000
C          C       0.54417   0.02147   0.00000
C          C       0.97853   0.52270   0.00000
C          C       0.47730   0.45583   0.00000
C          C       0.45583   0.97853   0.00000
C          C       0.02147   0.47730   0.00000
C          C       0.52270   0.54417   0.00000
H          H       0.56619   0.23366   0.00000
H          H       0.76634   0.33253   0.00000
H          H       0.66747   0.43381   0.00000
H          H       0.43381   0.76634   0.00000
H          H       0.23366   0.66747   0.00000
H          H       0.33253   0.56619   0.00000
H          H       0.53466   0.15257   0.00000
H          H       0.84743   0.38209   0.00000
H          H       0.61791   0.46534   0.00000
H          H       0.46534   0.84743   0.00000
H          H       0.15257   0.61791   0.00000
H          H       0.38209   0.53466   0.00000
H          H       0.66464   0.17010   0.00000
H          H       0.82990   0.49454   0.00000
H          H       0.50546   0.33536   0.00000
H          H       0.33536   0.82990   0.00000
H          H       0.17010   0.50546   0.00000
H          H       0.49454   0.66464   0.00000
H          H       0.69658   0.25113   0.00000
H          H       0.74887   0.44545   0.00000
H          H       0.55455   0.30342   0.00000
H          H       0.30342   0.74887   0.00000
H          H       0.25113   0.55455   0.00000
H          H       0.44545   0.69658   0.00000
H          H       0.51469   0.10144   0.00000
H          H       0.89856   0.41325   0.00000
H          H       0.58675   0.48531   0.00000
H          H       0.48531   0.89856   0.00000
H          H       0.10144   0.58675   0.00000
H          H       0.41325   0.51469   0.00000
H          H       0.45818   0.03928   0.00000
H          H       0.96072   0.41890   0.00000
H          H       0.58110   0.54182   0.00000
H          H       0.54182   0.96072   0.00000
H          H       0.03928   0.58110   0.00000
H          H       0.41890   0.45818   0.00000
H          H       0.58124   0.04023   0.00000
H          H       0.95977   0.54101   0.00000
H          H       0.45899   0.41876   0.00000
H          H       0.41876   0.95977   0.00000
H          H       0.04023   0.45899   0.00000
H          H       0.54101   0.58124   0.00000
N          N       0.62330   0.30741   0.50000
N          N       0.69259   0.31589   0.50000
N          N       0.68411   0.37670   0.50000
N          N       0.37670   0.69259   0.50000
N          N       0.30741   0.68411   0.50000
N          N       0.31589   0.62330   0.50000
C          C       0.65018   0.29007   0.50000
C          C       0.70993   0.36011   0.50000
C          C       0.63989   0.34982   0.50000
C          C       0.34982   0.70993   0.50000
C          C       0.29007   0.63989   0.50000
C          C       0.36011   0.65018   0.50000
C          C       0.63291   0.24611   0.50000
C          C       0.75389   0.38680   0.50000
C          C       0.61320   0.36709   0.50000
C          C       0.36709   0.75389   0.50000
C          C       0.24611   0.61320   0.50000
C          C       0.38680   0.63291   0.50000
C          C       0.58850   0.21918   0.50000
C          C       0.78082   0.36932   0.50000
C          C       0.63068   0.41150   0.50000
C          C       0.41150   0.78082   0.50000
C          C       0.21918   0.63068   0.50000
C          C       0.36932   0.58850   0.50000
C          C       0.57142   0.17509   0.50000
C          C       0.82491   0.39633   0.50000
C          C       0.60367   0.42858   0.50000
C          C       0.42858   0.82491   0.50000
C          C       0.17509   0.60367   0.50000
C          C       0.39633   0.57142   0.50000
C          C       0.59830   0.15775   0.50000
C          C       0.84225   0.44055   0.50000
C          C       0.55945   0.40170   0.50000
C          C       0.40170   0.84225   0.50000
C          C       0.15775   0.55945   0.50000
C          C       0.44055   0.59830   0.50000
C          C       0.64226   0.18450   0.50000
C          C       0.81550   0.45776   0.50000
C          C       0.54224   0.35774   0.50000
C          C       0.35774   0.81550   0.50000
C          C       0.18450   0.54224   0.50000
C          C       0.45776   0.64226   0.50000
C          C       0.65979   0.22877   0.50000
C          C       0.77123   0.43102   0.50000
C          C       0.56898   0.34021   0.50000
C          C       0.34021   0.77123   0.50000
C          C       0.22877   0.56898   0.50000
C          C       0.43102   0.65979   0.50000
N          N       0.58103   0.11379   0.50000
N          N       0.88621   0.46724   0.50000
N          N       0.53276   0.41897   0.50000
N          N       0.41897   0.88621   0.50000
N          N       0.11379   0.53276   0.50000
N          N       0.46724   0.58103   0.50000
C          C       0.53708   0.08704   0.50000
C          C       0.91296   0.45004   0.50000
C          C       0.54996   0.46292   0.50000
C          C       0.46292   0.91296   0.50000
C          C       0.08704   0.54996   0.50000
C          C       0.45004   0.53708   0.50000
C          C       0.52162   0.04348   0.50000
C          C       0.95652   0.47814   0.50000
C          C       0.52186   0.47838   0.50000
C          C       0.47838   0.95652   0.50000
C          C       0.04348   0.52186   0.50000
C          C       0.47814   0.52162   0.50000
C          C       0.47688   0.02091   0.50000
C          C       0.97909   0.45597   0.50000
C          C       0.54403   0.52312   0.50000
C          C       0.52312   0.97909   0.50000
C          C       0.02091   0.54403   0.50000
C          C       0.45597   0.47688   0.50000
C          C       0.54417   0.02147   0.50000
C          C       0.97853   0.52270   0.50000
C          C       0.47730   0.45583   0.50000
C          C       0.45583   0.97853   0.50000
C          C       0.02147   0.47730   0.50000
C          C       0.52270   0.54417   0.50000
H          H       0.56619   0.23366   0.50000
H          H       0.76634   0.33253   0.50000
H          H       0.66747   0.43381   0.50000
H          H       0.43381   0.76634   0.50000
H          H       0.23366   0.66747   0.50000
H          H       0.33253   0.56619   0.50000
H          H       0.53466   0.15257   0.50000
H          H       0.84743   0.38209   0.50000
H          H       0.61791   0.46534   0.50000
H          H       0.46534   0.84743   0.50000
H          H       0.15257   0.61791   0.50000
H          H       0.38209   0.53466   0.50000
H          H       0.66464   0.17010   0.50000
H          H       0.82990   0.49454   0.50000
H          H       0.50546   0.33536   0.50000
H          H       0.33536   0.82990   0.50000
H          H       0.17010   0.50546   0.50000
H          H       0.49454   0.66464   0.50000
H          H       0.69658   0.25113   0.50000
H          H       0.74887   0.44545   0.50000
H          H       0.55455   0.30342   0.50000
H          H       0.30342   0.74887   0.50000
H          H       0.25113   0.55455   0.50000
H          H       0.44545   0.69658   0.50000
H          H       0.51469   0.10144   0.50000
H          H       0.89856   0.41325   0.50000
H          H       0.58675   0.48531   0.50000
H          H       0.48531   0.89856   0.50000
H          H       0.10144   0.58675   0.50000
H          H       0.41325   0.51469   0.50000
H          H       0.45818   0.03928   0.50000
H          H       0.96072   0.41890   0.50000
H          H       0.58110   0.54182   0.50000
H          H       0.54182   0.96072   0.50000
H          H       0.03928   0.58110   0.50000
H          H       0.41890   0.45818   0.50000
H          H       0.58124   0.04023   0.50000
H          H       0.95977   0.54101   0.50000
H          H       0.45899   0.41876   0.50000
H          H       0.41876   0.95977   0.50000
H          H       0.04023   0.45899   0.50000
H          H       0.54101   0.58124   0.50000
