data_crystal

_cell_length_a    30.28120
_cell_length_b    30.28120
_cell_length_c    6.49030
_cell_angle_alpha 90.00000
_cell_angle_beta  90.00000
_cell_angle_gamma 120.00000

_space_group_name_Hall 'P 1'
_space_group_name_H-M_alt  'P 1'

loop_
_symmetry_equiv_pos_as_xyz
'x,y,z'

loop_
_atom_site_label
_atom_site_type_symbol
_atom_site_fract_x
_atom_site_fract_y
_atom_site_fract_z
N          N       0.47706   0.74520   0.00000
N          N       0.25480   0.73186   0.00000
N          N       0.26814   0.52294   0.00000
N          N       0.52294   0.25480   0.00000
N          N       0.74520   0.26814   0.00000
N          N       0.73186   0.47706   0.00000
C          C       0.53148   0.76762   0.00000
C          C       0.23238   0.76386   0.00000
C          C       0.23614   0.46852   0.00000
C          C       0.46852   0.23238   0.00000
C          C       0.76762   0.23614   0.00000
C          C       0.76386   0.53148   0.00000
C          C       0.55685   0.73944   0.00000
C          C       0.26056   0.81741   0.00000
C          C       0.18259   0.44315   0.00000
C          C       0.44315   0.26056   0.00000
C          C       0.73944   0.18259   0.00000
C          C       0.81741   0.55685   0.00000
C          C       0.61083   0.76293   0.00000
C          C       0.23707   0.84790   0.00000
C          C       0.15210   0.38917   0.00000
C          C       0.38917   0.23707   0.00000
C          C       0.76293   0.15210   0.00000
C          C       0.84790   0.61083   0.00000
C          C       0.63904   0.81807   0.00000
C          C       0.18193   0.82097   0.00000
C          C       0.17903   0.36096   0.00000
C          C       0.36096   0.18193   0.00000
C          C       0.81807   0.17903   0.00000
C          C       0.82097   0.63904   0.00000
C          C       0.61214   0.84520   0.00000
C          C       0.15480   0.76694   0.00000
C          C       0.23306   0.38786   0.00000
C          C       0.38786   0.15480   0.00000
C          C       0.84520   0.23306   0.00000
C          C       0.76694   0.61214   0.00000
C          C       0.55949   0.82011   0.00000
C          C       0.17989   0.73938   0.00000
C          C       0.26062   0.44051   0.00000
C          C       0.44051   0.17989   0.00000
C          C       0.82011   0.26062   0.00000
C          C       0.73938   0.55949   0.00000
C          C       0.69324   0.84483   0.00000
C          C       0.15517   0.84841   0.00000
C          C       0.15159   0.30676   0.00000
C          C       0.30676   0.15517   0.00000
C          C       0.84483   0.15159   0.00000
C          C       0.84841   0.69324   0.00000
C          C       0.72389   0.89879   0.00000
C          C       0.10121   0.82510   0.00000
C          C       0.17490   0.27611   0.00000
C          C       0.27611   0.10121   0.00000
C          C       0.89879   0.17490   0.00000
C          C       0.82510   0.72389   0.00000
C          C       0.71814   0.81635   0.00000
C          C       0.18365   0.90179   0.00000
C          C       0.09821   0.28186   0.00000
C          C       0.28186   0.18365   0.00000
C          C       0.81635   0.09821   0.00000
C          C       0.90179   0.71814   0.00000
C          C       0.77141   0.84038   0.00000
C          C       0.15962   0.93103   0.00000
C          C       0.06897   0.22859   0.00000
C          C       0.22859   0.15962   0.00000
C          C       0.84038   0.06897   0.00000
C          C       0.93103   0.77141   0.00000
C          C       0.80135   0.89343   0.00000
C          C       0.10657   0.90792   0.00000
C          C       0.09208   0.19865   0.00000
C          C       0.19865   0.10657   0.00000
C          C       0.89343   0.09208   0.00000
C          C       0.90792   0.80135   0.00000
C          C       0.77700   0.92255   0.00000
C          C       0.07745   0.85445   0.00000
C          C       0.14555   0.22300   0.00000
C          C       0.22300   0.07745   0.00000
C          C       0.92255   0.14555   0.00000
C          C       0.85445   0.77700   0.00000
N          N       0.85591   0.91566   0.00000
N          N       0.08434   0.94025   0.00000
N          N       0.05975   0.14409   0.00000
N          N       0.14409   0.08434   0.00000
N          N       0.91566   0.05975   0.00000
N          N       0.94025   0.85591   0.00000
C          C       0.89022   0.96387   0.00000
C          C       0.03613   0.92635   0.00000
C          C       0.07365   0.10978   0.00000
C          C       0.10978   0.03613   0.00000
C          C       0.96387   0.07365   0.00000
C          C       0.92635   0.89022   0.00000
C          C       0.94660   0.98249   0.00000
C          C       0.01751   0.96411   0.00000
C          C       0.03589   0.05340   0.00000
C          C       0.05340   0.01751   0.00000
C          C       0.98249   0.03589   0.00000
C          C       0.96411   0.94660   0.00000
C          C       0.63905   0.73570   0.00000
C          C       0.26430   0.90335   0.00000
C          C       0.09665   0.36095   0.00000
C          C       0.36095   0.26430   0.00000
C          C       0.73570   0.09665   0.00000
C          C       0.90335   0.63905   0.00000
N          N       0.69091   0.76500   0.00000
N          N       0.23500   0.92591   0.00000
N          N       0.07409   0.30909   0.00000
N          N       0.30909   0.23500   0.00000
N          N       0.76500   0.07409   0.00000
N          N       0.92591   0.69091   0.00000
C          C       0.28095   0.65196   0.00000
C          C       0.34804   0.62899   0.00000
C          C       0.37101   0.71905   0.00000
C          C       0.71905   0.34804   0.00000
C          C       0.65196   0.37101   0.00000
C          C       0.62899   0.28095   0.00000
C          C       0.29541   0.61390   0.00000
C          C       0.38610   0.68151   0.00000
C          C       0.31849   0.70459   0.00000
C          C       0.70459   0.38610   0.00000
C          C       0.61390   0.31849   0.00000
C          C       0.68151   0.29541   0.00000
C          C       0.30253   0.74436   0.00000
C          C       0.25564   0.55817   0.00000
C          C       0.44183   0.69747   0.00000
C          C       0.69747   0.25564   0.00000
C          C       0.74436   0.44183   0.00000
C          C       0.55817   0.30253   0.00000
C          C       0.32202   0.94260   0.00000
C          C       0.05740   0.37942   0.00000
C          C       0.62058   0.67798   0.00000
C          C       0.67798   0.05740   0.00000
C          C       0.94260   0.62058   0.00000
C          C       0.37942   0.32202   0.00000
C          C       0.33599   0.99517   0.00000
C          C       0.00483   0.34082   0.00000
C          C       0.65918   0.66401   0.00000
C          C       0.66401   0.00483   0.00000
C          C       0.99517   0.65918   0.00000
C          C       0.34082   0.33599   0.00000
C          C       0.38670   0.03463   0.00000
C          C       0.96537   0.35207   0.00000
C          C       0.64793   0.61330   0.00000
C          C       0.61330   0.96537   0.00000
C          C       0.03463   0.64793   0.00000
C          C       0.35207   0.38670   0.00000
C          C       0.42598   0.02367   0.00000
C          C       0.97633   0.40231   0.00000
C          C       0.59769   0.57402   0.00000
C          C       0.57402   0.97633   0.00000
C          C       0.02367   0.59769   0.00000
C          C       0.40231   0.42598   0.00000
C          C       0.36381   0.93335   0.00000
C          C       0.06665   0.43046   0.00000
C          C       0.56954   0.63619   0.00000
C          C       0.63619   0.06665   0.00000
C          C       0.93335   0.56954   0.00000
C          C       0.43046   0.36381   0.00000
C          C       0.02678   0.44130   0.00000
C          C       0.55870   0.58548   0.00000
C          C       0.41452   0.97322   0.00000
C          C       0.97322   0.55870   0.00000
C          C       0.44130   0.41452   0.00000
C          C       0.58548   0.02678   0.00000
H          H       0.53323   0.70026   0.00000
H          H       0.29974   0.83297   0.00000
H          H       0.16703   0.46677   0.00000
H          H       0.46677   0.29974   0.00000
H          H       0.70026   0.16703   0.00000
H          H       0.83297   0.53323   0.00000
H          H       0.63046   0.88611   0.00000
H          H       0.11389   0.74435   0.00000
H          H       0.25565   0.36954   0.00000
H          H       0.36954   0.11389   0.00000
H          H       0.88611   0.25565   0.00000
H          H       0.74435   0.63046   0.00000
H          H       0.53966   0.84161   0.00000
H          H       0.15839   0.69805   0.00000
H          H       0.30195   0.46034   0.00000
H          H       0.46034   0.15839   0.00000
H          H       0.84161   0.30195   0.00000
H          H       0.69805   0.53966   0.00000
H          H       0.70848   0.92401   0.00000
H          H       0.07599   0.78447   0.00000
H          H       0.21553   0.29152   0.00000
H          H       0.29152   0.07599   0.00000
H          H       0.92401   0.21553   0.00000
H          H       0.78447   0.70848   0.00000
H          H       0.78981   0.81762   0.00000
H          H       0.18238   0.97219   0.00000
H          H       0.02781   0.21019   0.00000
H          H       0.21019   0.18238   0.00000
H          H       0.81762   0.02781   0.00000
H          H       0.97219   0.78981   0.00000
H          H       0.79811   0.96364   0.00000
H          H       0.03636   0.83447   0.00000
H          H       0.16553   0.20189   0.00000
H          H       0.20189   0.03636   0.00000
H          H       0.96364   0.16553   0.00000
H          H       0.83447   0.79811   0.00000
H          H       0.87708   0.99053   0.00000
H          H       0.00947   0.88655   0.00000
H          H       0.11345   0.12292   0.00000
H          H       0.12292   0.00947   0.00000
H          H       0.99053   0.11345   0.00000
H          H       0.88655   0.87708   0.00000
O          O       0.22954   0.63952   0.00000
O          O       0.36048   0.59002   0.00000
O          O       0.40998   0.77046   0.00000
O          O       0.77046   0.36048   0.00000
O          O       0.63952   0.40998   0.00000
O          O       0.59002   0.22954   0.00000
H          H       0.33023   0.78391   0.00000
H          H       0.21609   0.54632   0.00000
H          H       0.45368   0.66977   0.00000
H          H       0.66977   0.21609   0.00000
H          H       0.78391   0.45368   0.00000
H          H       0.54632   0.33023   0.00000
H          H       0.30763   0.00690   0.00000
H          H       0.99310   0.30073   0.00000
H          H       0.69927   0.69237   0.00000
H          H       0.69237   0.99310   0.00000
H          H       0.00690   0.69927   0.00000
H          H       0.30073   0.30763   0.00000
H          H       0.39537   0.07395   0.00000
H          H       0.92605   0.32142   0.00000
H          H       0.67858   0.60463   0.00000
H          H       0.60463   0.92605   0.00000
H          H       0.07395   0.67858   0.00000
H          H       0.32142   0.39537   0.00000
H          H       0.46534   0.05421   0.00000
H          H       0.94579   0.41113   0.00000
H          H       0.58887   0.53466   0.00000
H          H       0.53466   0.94579   0.00000
H          H       0.05421   0.58887   0.00000
H          H       0.41113   0.46534   0.00000
H          H       0.36160   0.89750   0.00000
H          H       0.10250   0.46410   0.00000
H          H       0.53590   0.63840   0.00000
H          H       0.63840   0.10250   0.00000
H          H       0.89750   0.53590   0.00000
H          H       0.46410   0.36160   0.00000
H          H       0.03521   0.48057   0.00000
H          H       0.51943   0.55464   0.00000
H          H       0.44536   0.96479   0.00000
H          H       0.96479   0.51943   0.00000
H          H       0.48057   0.44536   0.00000
H          H       0.55464   0.03521   0.00000
H          H       0.39680   0.59780   0.00000
H          H       0.40220   0.79900   0.00000
H          H       0.20100   0.60320   0.00000
H          H       0.60320   0.40220   0.00000
H          H       0.59780   0.20100   0.00000
H          H       0.79900   0.39680   0.00000
N          N       0.81071   0.41221   0.50000
N          N       0.58779   0.39850   0.50000
N          N       0.60150   0.18929   0.50000
N          N       0.18929   0.58779   0.50000
N          N       0.41221   0.60150   0.50000
N          N       0.39850   0.81071   0.50000
C          C       0.86529   0.43509   0.50000
C          C       0.56491   0.43020   0.50000
C          C       0.56980   0.13471   0.50000
C          C       0.13471   0.56491   0.50000
C          C       0.43509   0.56980   0.50000
C          C       0.43020   0.86529   0.50000
C          C       0.89121   0.40739   0.50000
C          C       0.59261   0.48382   0.50000
C          C       0.51618   0.10879   0.50000
C          C       0.10879   0.59261   0.50000
C          C       0.40739   0.51618   0.50000
C          C       0.48382   0.89121   0.50000
C          C       0.94532   0.43155   0.50000
C          C       0.56845   0.51377   0.50000
C          C       0.48623   0.05468   0.50000
C          C       0.05468   0.56845   0.50000
C          C       0.43155   0.48623   0.50000
C          C       0.51377   0.94532   0.50000
C          C       0.97302   0.48673   0.50000
C          C       0.51327   0.48629   0.50000
C          C       0.51371   0.02698   0.50000
C          C       0.02698   0.51327   0.50000
C          C       0.48673   0.51371   0.50000
C          C       0.48629   0.97302   0.50000
C          C       0.94561   0.51328   0.50000
C          C       0.48672   0.43233   0.50000
C          C       0.56767   0.05439   0.50000
C          C       0.05439   0.48672   0.50000
C          C       0.51328   0.56767   0.50000
C          C       0.43233   0.94561   0.50000
C          C       0.89292   0.48763   0.50000
C          C       0.51237   0.40529   0.50000
C          C       0.59471   0.10708   0.50000
C          C       0.10708   0.51237   0.50000
C          C       0.48763   0.59471   0.50000
C          C       0.40529   0.89292   0.50000
C          C       0.22428   0.63320   0.50000
C          C       0.36680   0.59108   0.50000
C          C       0.40892   0.77572   0.50000
C          C       0.77572   0.36680   0.50000
C          C       0.63320   0.40892   0.50000
C          C       0.59108   0.22428   0.50000
C          C       0.28028   0.65051   0.50000
C          C       0.34949   0.62977   0.50000
C          C       0.37023   0.71972   0.50000
C          C       0.71972   0.34949   0.50000
C          C       0.65051   0.37023   0.50000
C          C       0.62977   0.28028   0.50000
C          C       0.29663   0.61399   0.50000
C          C       0.38601   0.68264   0.50000
C          C       0.31736   0.70337   0.50000
C          C       0.70337   0.38601   0.50000
C          C       0.61399   0.31736   0.50000
C          C       0.68264   0.29663   0.50000
C          C       0.97426   0.40504   0.50000
C          C       0.59496   0.56922   0.50000
C          C       0.43078   0.02574   0.50000
C          C       0.02574   0.59496   0.50000
C          C       0.40504   0.43078   0.50000
C          C       0.56922   0.97426   0.50000
N          N       0.02594   0.43490   0.50000
N          N       0.56510   0.59104   0.50000
N          N       0.40896   0.97406   0.50000
N          N       0.97406   0.56510   0.50000
N          N       0.43490   0.40896   0.50000
N          N       0.59104   0.02594   0.50000
C          C       0.65231   0.60932   0.50000
C          C       0.39068   0.04299   0.50000
C          C       0.95701   0.34769   0.50000
C          C       0.34769   0.39068   0.50000
C          C       0.60932   0.95701   0.50000
C          C       0.04299   0.65231   0.50000
C          C       0.66519   0.66163   0.50000
C          C       0.33837   0.00356   0.50000
C          C       0.99644   0.33481   0.50000
C          C       0.33481   0.33837   0.50000
C          C       0.66163   0.99644   0.50000
C          C       0.00356   0.66519   0.50000
C          C       0.71552   0.70181   0.50000
C          C       0.29819   0.01371   0.50000
C          C       0.98629   0.28448   0.50000
C          C       0.28448   0.29819   0.50000
C          C       0.70181   0.98629   0.50000
C          C       0.01371   0.71552   0.50000
C          C       0.75546   0.69182   0.50000
C          C       0.30818   0.06364   0.50000
C          C       0.93636   0.24454   0.50000
C          C       0.24454   0.30818   0.50000
C          C       0.69182   0.93636   0.50000
C          C       0.06364   0.75546   0.50000
C          C       0.69467   0.60107   0.50000
C          C       0.39893   0.09360   0.50000
C          C       0.90640   0.30533   0.50000
C          C       0.30533   0.39893   0.50000
C          C       0.60107   0.90640   0.50000
C          C       0.09360   0.69467   0.50000
C          C       0.35834   0.10338   0.50000
C          C       0.89662   0.25496   0.50000
C          C       0.74504   0.64166   0.50000
C          C       0.64166   0.89662   0.50000
C          C       0.10338   0.74504   0.50000
C          C       0.25496   0.35834   0.50000
H          H       0.86787   0.36806   0.50000
H          H       0.63194   0.49981   0.50000
H          H       0.50019   0.13213   0.50000
H          H       0.13213   0.63194   0.50000
H          H       0.36806   0.50019   0.50000
H          H       0.49981   0.86787   0.50000
H          H       0.87270   0.50875   0.50000
H          H       0.49125   0.36395   0.50000
H          H       0.63605   0.12730   0.50000
H          H       0.12730   0.49125   0.50000
H          H       0.50875   0.63605   0.50000
H          H       0.36395   0.87270   0.50000
H          H       0.21168   0.66032   0.50000
H          H       0.33968   0.55136   0.50000
H          H       0.44864   0.78832   0.50000
H          H       0.78832   0.33968   0.50000
H          H       0.66032   0.44864   0.50000
H          H       0.55136   0.21168   0.50000
O          O       0.25850   0.56226   0.50000
O          O       0.43774   0.69624   0.50000
O          O       0.30376   0.74150   0.50000
O          O       0.74150   0.43774   0.50000
O          O       0.56226   0.30376   0.50000
O          O       0.69624   0.25850   0.50000
H          H       0.63622   0.67256   0.50000
H          H       0.32744   0.96366   0.50000
H          H       0.03634   0.36378   0.50000
H          H       0.36378   0.32744   0.50000
H          H       0.67256   0.03634   0.50000
H          H       0.96366   0.63622   0.50000
H          H       0.72336   0.74089   0.50000
H          H       0.25911   0.98247   0.50000
H          H       0.01753   0.27664   0.50000
H          H       0.27664   0.25911   0.50000
H          H       0.74089   0.01753   0.50000
H          H       0.98247   0.72336   0.50000
H          H       0.79454   0.72298   0.50000
H          H       0.27702   0.07156   0.50000
H          H       0.92844   0.20546   0.50000
H          H       0.20546   0.27702   0.50000
H          H       0.72298   0.92844   0.50000
H          H       0.07156   0.79454   0.50000
H          H       0.69289   0.56541   0.50000
H          H       0.43459   0.12748   0.50000
H          H       0.87252   0.30711   0.50000
H          H       0.30711   0.43459   0.50000
H          H       0.56541   0.87252   0.50000
H          H       0.12748   0.69289   0.50000
H          H       0.36599   0.14238   0.50000
H          H       0.85762   0.22361   0.50000
H          H       0.77639   0.63401   0.50000
H          H       0.63401   0.85762   0.50000
H          H       0.14238   0.77639   0.50000
H          H       0.22361   0.36599   0.50000
H          H       0.73049   0.26485   0.50000
H          H       0.73515   0.46564   0.50000
H          H       0.53436   0.26951   0.50000
H          H       0.26951   0.73515   0.50000
H          H       0.26485   0.53436   0.50000
H          H       0.46564   0.73049   0.50000
