data_crystal

_cell_length_a    29.10060
_cell_length_b    29.10060
_cell_length_c    7.63940
_cell_angle_alpha 90.00000
_cell_angle_beta  90.00000
_cell_angle_gamma 120.00000

_space_group_name_Hall 'P 1'
_space_group_name_H-M_alt  'P 1'

loop_
_symmetry_equiv_pos_as_xyz
 'x,y,z'

loop_
_atom_site_label
_atom_site_type_symbol
_atom_site_fract_x
_atom_site_fract_y
_atom_site_fract_z
N          N       0.14203   0.07812   0.15151
N          N       0.92188   0.06391   0.15151
N          N       0.93609   0.85797   0.15151
C          C       0.19498   0.09734   0.08793
C          C       0.90266   0.09764   0.08793
C          C       0.90236   0.80502   0.08793
C          C       0.22087   0.06769   0.09498
C          C       0.93231   0.15318   0.09498
C          C       0.84682   0.77913   0.09498
C          C       0.27025   0.08535   0.01248
C          C       0.91465   0.18490   0.01248
C          C       0.81510   0.72975   0.01248
C          C       0.29865   0.13854   0.45215
C          C       0.86146   0.16011   0.45215
C          C       0.83989   0.70135   0.45215
C          C       0.27234   0.16843   0.44739
C          C       0.83157   0.10391   0.44739
C          C       0.89609   0.72766   0.44739
C          C       0.22063   0.14709   0.00996
C          C       0.85291   0.07354   0.00996
C          C       0.92646   0.77937   0.00996
C          C       0.29417   0.05296   0.00173
C          C       0.94704   0.24121   0.00173
C          C       0.75879   0.70583   0.00173
C          C       0.05466   0.01676   0.26324
C          C       0.98324   0.03790   0.26324
C          C       0.96210   0.94534   0.26324
C          C       0.17412   0.91309   0.39435
C          C       0.08691   0.26103   0.39435
C          C       0.73897   0.82588   0.39435
C          C       0.03775   0.05446   0.27011
C          C       0.94554   0.98329   0.27011
C          C       0.01671   0.96225   0.27011
C          C       0.11089   0.03306   0.22741
C          C       0.96694   0.07783   0.22741
C          C       0.92217   0.88911   0.22741
C          C       0.26035   0.99254   0.46453
C          C       0.00746   0.26781   0.46453
C          C       0.73219   0.73965   0.46453
C          C       0.28302   0.95948   0.44112
C          C       0.04052   0.32354   0.44112
C          C       0.67646   0.71698   0.44112
C          C       0.25214   0.90514   0.40667
C          C       0.09486   0.34700   0.40667
C          C       0.65300   0.74786   0.40667
C          C       0.19762   0.88179   0.38600
C          C       0.11821   0.31583   0.38600
C          C       0.68417   0.80238   0.38600
C          C       0.20485   0.96738   0.42903
C          C       0.03262   0.23747   0.42903
C          C       0.76253   0.79515   0.42903
O          O       0.07557   0.10848   0.28131
O          O       0.89152   0.96709   0.28131
O          O       0.03291   0.92443   0.28131
C          C       0.35295   0.16074   0.40933
C          C       0.83926   0.19221   0.40933
C          C       0.80779   0.64705   0.40933
C          C       0.38367   0.21264   0.33994
C          C       0.78736   0.17103   0.33994
C          C       0.82897   0.61633   0.33994
C          C       0.37854   0.13153   0.45290
C          C       0.86847   0.24701   0.45290
C          C       0.75299   0.62146   0.45290
C          C       0.43460   0.15740   0.44031
C          C       0.84260   0.27720   0.44031
C          C       0.72280   0.56540   0.44031
C          C       0.46442   0.20987   0.38584
C          C       0.79013   0.25455   0.38584
C          C       0.74545   0.53558   0.38584
C          C       0.43876   0.23690   0.33021
C          C       0.76310   0.20186   0.33021
C          C       0.79814   0.56124   0.33021
N          N       0.52109   0.23489   0.38948
N          N       0.76511   0.28620   0.38948
N          N       0.71380   0.47891   0.38948
C          C       0.55192   0.28333   0.44227
C          C       0.71667   0.26859   0.44227
C          C       0.73141   0.44808   0.44227
C          C       0.61061   0.30781   0.44711
C          C       0.69219   0.30280   0.44711
C          C       0.69720   0.38939   0.44711
C          C       0.63647   0.27750   0.45182
C          C       0.72250   0.35897   0.45182
C          C       0.64103   0.36353   0.45182
N          N       0.34921   0.07927   0.00816
N          N       0.92073   0.26994   0.00816
N          N       0.73006   0.65079   0.00816
O          O       0.60834   0.22219   0.47133
O          O       0.77781   0.38615   0.47133
O          O       0.61385   0.39166   0.47133
C          C       0.37689   0.05568   0.10194
C          C       0.94432   0.32121   0.10194
C          C       0.67879   0.62311   0.10194
H          H       0.20329   0.03106   0.16563
H          H       0.96894   0.17223   0.16563
H          H       0.82777   0.79671   0.16563
H          H       0.29084   0.20858   0.39941
H          H       0.79142   0.08226   0.39941
H          H       0.91774   0.70916   0.39941
H          H       0.20026   0.16964   0.00207
H          H       0.83036   0.03062   0.00207
H          H       0.96938   0.79974   0.00207
H          H       0.13194   0.89552   0.36982
H          H       0.10448   0.23642   0.36982
H          H       0.76358   0.86806   0.36982
H          H       0.12369   0.00455   0.24665
H          H       0.99545   0.11914   0.24665
H          H       0.88086   0.87631   0.24665
H          H       0.32473   0.97410   0.44019
H          H       0.02590   0.35063   0.44019
H          H       0.64937   0.67527   0.44019
H          H       0.27092   0.88128   0.39172
H          H       0.11872   0.38964   0.39172
H          H       0.61036   0.72908   0.39172
H          H       0.17386   0.83984   0.35720
H          H       0.16016   0.33402   0.35720
H          H       0.66598   0.82614   0.35720
H          H       0.18360   0.98848   0.41949
H          H       0.01152   0.19512   0.41949
H          H       0.80488   0.81640   0.41949
H          H       0.06734   0.12698   0.37876
H          H       0.87302   0.94036   0.37876
H          H       0.05964   0.93266   0.37876
H          H       0.36618   0.23533   0.29255
H          H       0.76467   0.13085   0.29255
H          H       0.86915   0.63382   0.29255
H          H       0.45628   0.13749   0.47353
H          H       0.86251   0.31879   0.47353
H          H       0.68121   0.54372   0.47353
H          H       0.46161   0.27681   0.27884
H          H       0.72319   0.18480   0.27884
H          H       0.81520   0.53839   0.27884
H          H       0.53467   0.30699   0.48500
H          H       0.69301   0.22768   0.48500
H          H       0.77232   0.46533   0.48500
H          H       0.57496   0.20871   0.04486
H          H       0.79129   0.36625   0.04486
H          H       0.63375   0.42504   0.04486
H          H       0.39955   0.04501   0.00950
H          H       0.95499   0.35454   0.00950
H          H       0.64546   0.60045   0.00950
H          H       0.34928   0.02132   0.18266
H          H       0.97868   0.32796   0.18266
H          H       0.67204   0.65072   0.18266
H          H       0.40547   0.08396   0.19788
H          H       0.91604   0.32151   0.19788
H          H       0.67849   0.59453   0.19788
N          N       0.14203   0.07812   0.65151
N          N       0.92188   0.06391   0.65151
N          N       0.93609   0.85797   0.65151
C          C       0.19498   0.09734   0.58793
C          C       0.90266   0.09764   0.58793
C          C       0.90236   0.80502   0.58793
C          C       0.22087   0.06769   0.59498
C          C       0.93231   0.15318   0.59498
C          C       0.84682   0.77913   0.59498
C          C       0.27025   0.08535   0.51248
C          C       0.91465   0.18490   0.51248
C          C       0.81510   0.72975   0.51248
C          C       0.29865   0.13854   0.95215
C          C       0.86146   0.16011   0.95215
C          C       0.83989   0.70135   0.95215
C          C       0.27234   0.16843   0.94739
C          C       0.83157   0.10391   0.94739
C          C       0.89609   0.72766   0.94739
C          C       0.22063   0.14709   0.50996
C          C       0.85291   0.07354   0.50996
C          C       0.92646   0.77937   0.50996
C          C       0.29417   0.05296   0.50173
C          C       0.94704   0.24121   0.50173
C          C       0.75879   0.70583   0.50173
C          C       0.05466   0.01676   0.76324
C          C       0.98324   0.03790   0.76324
C          C       0.96210   0.94534   0.76324
C          C       0.17412   0.91309   0.89435
C          C       0.08691   0.26103   0.89435
C          C       0.73897   0.82588   0.89435
C          C       0.03775   0.05446   0.77011
C          C       0.94554   0.98329   0.77011
C          C       0.01671   0.96225   0.77011
C          C       0.11089   0.03306   0.72741
C          C       0.96694   0.07783   0.72741
C          C       0.92217   0.88911   0.72741
C          C       0.26035   0.99254   0.96453
C          C       0.00746   0.26781   0.96453
C          C       0.73219   0.73965   0.96453
C          C       0.28302   0.95948   0.94113
C          C       0.04052   0.32354   0.94113
C          C       0.67646   0.71698   0.94113
C          C       0.25214   0.90514   0.90667
C          C       0.09486   0.34700   0.90667
C          C       0.65300   0.74786   0.90667
C          C       0.19762   0.88179   0.88600
C          C       0.11821   0.31583   0.88600
C          C       0.68417   0.80238   0.88600
C          C       0.20485   0.96738   0.92902
C          C       0.03262   0.23747   0.92902
C          C       0.76253   0.79515   0.92902
O          O       0.07557   0.10848   0.78131
O          O       0.89152   0.96709   0.78131
O          O       0.03291   0.92443   0.78131
C          C       0.35295   0.16074   0.90933
C          C       0.83926   0.19221   0.90933
C          C       0.80779   0.64705   0.90933
C          C       0.38367   0.21264   0.83995
C          C       0.78736   0.17103   0.83995
C          C       0.82897   0.61633   0.83995
C          C       0.37854   0.13153   0.95290
C          C       0.86847   0.24701   0.95290
C          C       0.75299   0.62146   0.95290
C          C       0.43460   0.15740   0.94031
C          C       0.84260   0.27720   0.94031
C          C       0.72280   0.56540   0.94031
C          C       0.46442   0.20987   0.88584
C          C       0.79013   0.25455   0.88584
C          C       0.74545   0.53558   0.88584
C          C       0.43876   0.23690   0.83021
C          C       0.76310   0.20186   0.83021
C          C       0.79814   0.56124   0.83021
N          N       0.52109   0.23489   0.88948
N          N       0.76511   0.28620   0.88948
N          N       0.71380   0.47891   0.88948
C          C       0.55192   0.28333   0.94227
C          C       0.71667   0.26859   0.94227
C          C       0.73141   0.44808   0.94227
C          C       0.61061   0.30781   0.94711
C          C       0.69219   0.30280   0.94711
C          C       0.69720   0.38939   0.94711
C          C       0.63647   0.27750   0.95181
C          C       0.72250   0.35897   0.95181
C          C       0.64103   0.36353   0.95181
N          N       0.34921   0.07927   0.50816
N          N       0.92073   0.26994   0.50816
N          N       0.73006   0.65079   0.50816
O          O       0.60834   0.22219   0.97133
O          O       0.77781   0.38615   0.97133
O          O       0.61385   0.39166   0.97133
C          C       0.37689   0.05568   0.60194
C          C       0.94432   0.32121   0.60194
C          C       0.67879   0.62311   0.60194
H          H       0.20329   0.03106   0.66563
H          H       0.96894   0.17223   0.66563
H          H       0.82777   0.79671   0.66563
H          H       0.29084   0.20858   0.89941
H          H       0.79142   0.08226   0.89941
H          H       0.91774   0.70916   0.89941
H          H       0.20026   0.16964   0.50207
H          H       0.83036   0.03062   0.50207
H          H       0.96938   0.79974   0.50207
H          H       0.13194   0.89552   0.86982
H          H       0.10448   0.23642   0.86982
H          H       0.76358   0.86806   0.86982
H          H       0.12369   0.00455   0.74665
H          H       0.99545   0.11914   0.74665
H          H       0.88086   0.87631   0.74665
H          H       0.32473   0.97410   0.94019
H          H       0.02590   0.35063   0.94019
H          H       0.64937   0.67527   0.94019
H          H       0.27092   0.88128   0.89173
H          H       0.11872   0.38964   0.89173
H          H       0.61036   0.72908   0.89173
H          H       0.17386   0.83984   0.85720
H          H       0.16016   0.33402   0.85720
H          H       0.66598   0.82614   0.85720
H          H       0.18360   0.98848   0.91948
H          H       0.01152   0.19512   0.91948
H          H       0.80488   0.81640   0.91948
H          H       0.06734   0.12698   0.87876
H          H       0.87302   0.94036   0.87876
H          H       0.05964   0.93266   0.87876
H          H       0.36618   0.23533   0.79255
H          H       0.76467   0.13085   0.79255
H          H       0.86915   0.63382   0.79255
H          H       0.45628   0.13749   0.97353
H          H       0.86251   0.31879   0.97353
H          H       0.68121   0.54372   0.97353
H          H       0.46161   0.27681   0.77884
H          H       0.72319   0.18480   0.77884
H          H       0.81520   0.53839   0.77884
H          H       0.53467   0.30699   0.98500
H          H       0.69301   0.22768   0.98500
H          H       0.77232   0.46533   0.98500
H          H       0.57496   0.20871   0.54486
H          H       0.79129   0.36625   0.54486
H          H       0.63375   0.42504   0.54486
H          H       0.39955   0.04501   0.50950
H          H       0.95499   0.35454   0.50950
H          H       0.64546   0.60045   0.50950
H          H       0.34928   0.02132   0.68266
H          H       0.97868   0.32796   0.68266
H          H       0.67204   0.65072   0.68266
H          H       0.40547   0.08396   0.69788
H          H       0.91604   0.32151   0.69788
H          H       0.67849   0.59453   0.69788
