data_crystal

_cell_length_a    42.12000
_cell_length_b    42.82000
_cell_length_c    8.00000
_cell_angle_alpha 91.30000
_cell_angle_beta  86.70000
_cell_angle_gamma 118.80000

_space_group_name_Hall 'P 1'
_space_group_name_H-M_alt  'P 1'

loop_
_symmetry_equiv_pos_as_xyz
'x,y,z'

loop_
_atom_site_label
_atom_site_type_symbol
_atom_site_fract_x
_atom_site_fract_y
_atom_site_fract_z
N          N       0.56807   0.00117   0.23629
N          N       0.43193   0.99883   0.26370
C          C       0.53414   0.00065   0.24337
C          C       0.46586   0.99935   0.25662
C          C       0.50375   0.97391   0.33228
C          C       0.49625   0.02609   0.16772
H          H       0.50603   0.95338   0.40077
H          H       0.49397   0.04662   0.09923
C          C       0.47045   0.97327   0.33859
C          C       0.52955   0.02673   0.16141
H          H       0.44783   0.95221   0.41138
H          H       0.55217   0.04779   0.08861
N          N       0.57398   0.87287   0.25427
N          N       0.42602   0.12713   0.24573
C          C       0.56912   0.96878   0.23751
C          C       0.43088   0.03122   0.26248
C          C       0.54211   0.93803   0.16313
C          C       0.45789   0.06197   0.33687
H          H       0.52029   0.93912   0.09982
H          H       0.47971   0.06088   0.40018
C          C       0.54268   0.90605   0.16631
C          C       0.45732   0.09395   0.33369
H          H       0.52125   0.88312   0.10481
H          H       0.47875   0.11688   0.39519
C          C       0.57069   0.90348   0.24307
C          C       0.42931   0.09652   0.25693
C          C       0.59790   0.93435   0.31548
C          C       0.40210   0.06565   0.18452
H          H       0.61969   0.93290   0.37746
H          H       0.38031   0.06710   0.12254
C          C       0.59712   0.96620   0.31373
C          C       0.40288   0.03380   0.18627
H          H       0.61844   0.98932   0.37418
H          H       0.38156   0.01068   0.12582
C          C       0.55091   0.84221   0.19977
C          C       0.44909   0.15779   0.30023
H          H       0.52575   0.83712   0.13706
H          H       0.47425   0.16288   0.36294
C          C       0.39932   0.96613   0.26841
C          C       0.60068   0.03387   0.23159
C          C       0.36758   0.96295   0.35263
C          C       0.63242   0.03705   0.14737
H          H       0.36795   0.98565   0.41886
H          H       0.63205   0.01435   0.08114
C          C       0.33546   0.93107   0.35428
C          C       0.66454   0.06893   0.14572
H          H       0.31119   0.92925   0.42110
H          H       0.68881   0.07075   0.07889
C          C       0.33339   0.90089   0.27198
C          C       0.66661   0.09911   0.22802
C          C       0.36533   0.90376   0.19106
C          C       0.63467   0.09624   0.30895
H          H       0.36540   0.88103   0.12660
H          H       0.63460   0.11897   0.37340
C          C       0.39746   0.93570   0.18919
C          C       0.60254   0.06430   0.31080
H          H       0.42153   0.93696   0.12314
H          H       0.57847   0.06304   0.37686
N          N       0.29973   0.87024   0.28106
N          N       0.70027   0.12976   0.21894
C          C       0.29195   0.84209   0.19453
C          C       0.70805   0.15791   0.30546
H          H       0.31153   0.83958   0.10198
H          H       0.68847   0.16042   0.39802
N          N       0.56395   0.56700   0.24368
N          N       0.43605   0.43300   0.25632
C          C       0.53201   0.53359   0.24688
C          C       0.46799   0.46641   0.25312
C          C       0.46968   0.49584   0.17114
C          C       0.53032   0.50416   0.32886
H          H       0.44645   0.49326   0.10559
H          H       0.55355   0.50674   0.39441
C          C       0.50088   0.52860   0.16825
C          C       0.49912   0.47140   0.33176
H          H       0.50093   0.55047   0.10074
H          H       0.49907   0.44953   0.39926
N          N       0.30219   0.43331   0.27565
N          N       0.69781   0.56669   0.22435
C          C       0.40189   0.43175   0.26237
C          C       0.59811   0.56825   0.23763
C          C       0.39694   0.45865   0.34382
C          C       0.60306   0.54135   0.15618
H          H       0.41926   0.48021   0.40764
H          H       0.58074   0.51979   0.09236
C          C       0.36381   0.45817   0.34579
C          C       0.63619   0.54183   0.15420
H          H       0.36060   0.47931   0.41031
H          H       0.63940   0.52069   0.08969
C          C       0.33404   0.43090   0.26698
C          C       0.66596   0.56910   0.23302
C          C       0.33865   0.40346   0.18921
C          C       0.66135   0.59654   0.31079
H          H       0.31631   0.38147   0.12715
H          H       0.68369   0.61853   0.37284
C          C       0.37189   0.40404   0.18663
C          C       0.62811   0.59596   0.31337
H          H       0.37461   0.38266   0.12207
H          H       0.62539   0.61734   0.37792
C          C       0.27393   0.41352   0.19373
C          C       0.72607   0.58648   0.30627
H          H       0.27210   0.39220   0.10557
H          H       0.72790   0.60780   0.39443
C          C       0.24218   0.41882   0.21347
C          C       0.75782   0.58118   0.28653
C          C       0.24410   0.44806   0.30422
C          C       0.75590   0.55194   0.19578
C          C       0.21416   0.45334   0.32431
C          C       0.78584   0.54666   0.17569
H          H       0.21614   0.47615   0.39666
H          H       0.78386   0.52385   0.10334
C          C       0.18120   0.42968   0.25387
C          C       0.81880   0.57032   0.24613
C          C       0.17929   0.40049   0.16268
C          C       0.82071   0.59951   0.33732
C          C       0.20925   0.39517   0.14283
C          C       0.79075   0.60483   0.35717
H          H       0.20728   0.37236   0.07050
H          H       0.79272   0.62764   0.42950
C          C       0.56117   0.59855   0.24613
C          C       0.43883   0.40145   0.25387
C          C       0.58769   0.62956   0.16326
C          C       0.41231   0.37044   0.33674
H          H       0.61090   0.62966   0.09404
H          H       0.38910   0.37034   0.40596
C          C       0.58488   0.66048   0.16617
C          C       0.41512   0.33952   0.33383
H          H       0.60561   0.68398   0.09785
H          H       0.39439   0.31602   0.40215
C          C       0.55477   0.66114   0.24810
C          C       0.44523   0.33886   0.25190
C          C       0.52771   0.63000   0.32723
C          C       0.47229   0.37000   0.17277
H          H       0.50436   0.63020   0.39372
H          H       0.49564   0.36980   0.10628
C          C       0.53133   0.59961   0.32960
C          C       0.46867   0.40039   0.17040
H          H       0.51028   0.57618   0.39664
H          H       0.48972   0.42382   0.10336
N          N       0.54956   0.69079   0.24161
N          N       0.45044   0.30921   0.25839
C          C       0.57435   0.72227   0.27470
C          C       0.42565   0.27773   0.22530
H          H       0.60122   0.72778   0.32060
H          H       0.39878   0.27222   0.17940
C          C       0.56827   0.75276   0.25649
C          C       0.43173   0.24724   0.24351
C          C       0.53712   0.74889   0.18190
C          C       0.46288   0.25111   0.31810
C          C       0.53154   0.77787   0.16317
C          C       0.46846   0.22213   0.33683
H          H       0.50726   0.77438   0.10305
H          H       0.49274   0.22562   0.39695
C          C       0.55682   0.81171   0.21903
C          C       0.44318   0.18829   0.28097
C          C       0.58791   0.81552   0.29413
C          C       0.41209   0.18448   0.20587
C          C       0.59361   0.78660   0.31188
C          C       0.40639   0.21340   0.18812
H          H       0.61792   0.79007   0.37162
H          H       0.38208   0.20993   0.12838
N          N       0.00549   0.56852   0.26043
N          N       0.99451   0.43148   0.23957
C          C       0.00281   0.53436   0.25531
C          C       0.99719   0.46564   0.24469
C          C       0.02825   0.52794   0.16101
C          C       0.97175   0.47206   0.33898
H          H       0.05046   0.54926   0.08759
H          H       0.94954   0.45074   0.41241
C          C       0.02549   0.49443   0.15573
C          C       0.97451   0.50557   0.34427
H          H       0.04564   0.49075   0.07821
H          H       0.95436   0.50925   0.42179
N          N       0.14367   0.69002   0.22781
N          N       0.85633   0.30998   0.27219
C          C       0.04004   0.59919   0.25244
C          C       0.95996   0.40081   0.24756
C          C       0.07015   0.59901   0.31975
C          C       0.92985   0.40099   0.18025
H          H       0.06712   0.57512   0.38079
H          H       0.93288   0.42488   0.11921
C          C       0.10417   0.62885   0.30963
C          C       0.89583   0.37115   0.19037
H          H       0.12706   0.62815   0.36442
H          H       0.87294   0.37185   0.13558
C          C       0.10898   0.66060   0.23911
C          C       0.89102   0.33940   0.26089
C          C       0.07910   0.66103   0.17145
C          C       0.92090   0.33897   0.32855
H          H       0.08254   0.68501   0.10911
H          H       0.91746   0.31499   0.39089
C          C       0.04542   0.63068   0.17570
C          C       0.95458   0.36932   0.32430
H          H       0.02300   0.63165   0.11770
H          H       0.97700   0.36835   0.38230
C          C       0.14971   0.72113   0.27327
C          C       0.85029   0.27887   0.22673
H          H       0.12786   0.72613   0.33286
H          H       0.87214   0.27387   0.16714
C          C       0.19336   0.78465   0.32459
C          C       0.80664   0.21535   0.17541
C          C       0.18599   0.75181   0.25295
C          C       0.81401   0.24819   0.24705
C          C       0.21408   0.74922   0.16093
C          C       0.78592   0.25078   0.33906
H          H       0.20856   0.72385   0.10323
H          H       0.79144   0.27615   0.39677
C          C       0.24832   0.77851   0.14086
C          C       0.75168   0.22149   0.35914
C          C       0.25583   0.81126   0.21420
C          C       0.74417   0.18874   0.28580
C          C       0.22774   0.81378   0.30673
C          C       0.77226   0.18622   0.19327
H          H       0.23332   0.83913   0.36499
H          H       0.76668   0.16087   0.13501
C          C       0.02644   0.42832   0.22906
C          C       0.97356   0.57168   0.27094
C          C       0.02764   0.39960   0.14610
C          C       0.97236   0.60040   0.35390
H          H       0.00379   0.37937   0.08525
H          H       0.99621   0.62063   0.41474
C          C       0.05909   0.39671   0.13800
C          C       0.94091   0.60329   0.36200
H          H       0.05940   0.37425   0.07196
H          H       0.94060   0.62575   0.42805
C          C       0.09077   0.42226   0.21179
C          C       0.90923   0.57774   0.28821
C          C       0.08981   0.45138   0.29192
C          C       0.91019   0.54862   0.20808
H          H       0.11370   0.47222   0.35030
H          H       0.88630   0.52778   0.14970
C          C       0.05830   0.45413   0.30097
C          C       0.94170   0.54587   0.19903
H          H       0.05851   0.47682   0.36674
H          H       0.94149   0.52318   0.13325
N          N       0.12111   0.41718   0.19613
N          N       0.87889   0.58282   0.30387
C          C       0.14995   0.43565   0.27673
C          C       0.85005   0.56435   0.22326
H          H       0.15284   0.45693   0.36753
H          H       0.84716   0.54307   0.13247
H          H       0.26959   0.46655   0.36029
H          H       0.73041   0.53345   0.13971
H          H       0.15385   0.38198   0.10632
H          H       0.84615   0.61802   0.39367
H          H       0.51734   0.72269   0.13719
H          H       0.48266   0.27731   0.36281
H          H       0.60763   0.84171   0.33929
H          H       0.39237   0.15829   0.16071
H          H       0.17183   0.78714   0.39753
H          H       0.82817   0.21286   0.10247
H          H       0.26976   0.77609   0.06687
H          H       0.73024   0.22391   0.43313
N          N       0.56807   0.00117   0.73630
N          N       0.43193   0.99883   0.76370
C          C       0.53414   0.00065   0.74337
C          C       0.46586   0.99935   0.75662
C          C       0.50375   0.97391   0.83228
C          C       0.49625   0.02609   0.66772
H          H       0.50603   0.95338   0.90077
H          H       0.49397   0.04662   0.59923
C          C       0.47045   0.97327   0.83859
C          C       0.52955   0.02673   0.66141
H          H       0.44783   0.95221   0.91139
H          H       0.55217   0.04779   0.58861
N          N       0.57398   0.87287   0.75426
N          N       0.42602   0.12713   0.74573
C          C       0.56912   0.96878   0.73751
C          C       0.43088   0.03122   0.76248
C          C       0.54211   0.93803   0.66313
C          C       0.45789   0.06197   0.83687
H          H       0.52029   0.93912   0.59983
H          H       0.47971   0.06088   0.90017
C          C       0.54268   0.90605   0.66631
C          C       0.45732   0.09395   0.83369
H          H       0.52125   0.88312   0.60481
H          H       0.47875   0.11688   0.89519
C          C       0.57069   0.90348   0.74307
C          C       0.42931   0.09652   0.75693
C          C       0.59790   0.93435   0.81548
C          C       0.40210   0.06565   0.68452
H          H       0.61969   0.93290   0.87746
H          H       0.38031   0.06710   0.62253
C          C       0.59712   0.96620   0.81373
C          C       0.40288   0.03380   0.68627
H          H       0.61844   0.98932   0.87418
H          H       0.38156   0.01068   0.62582
C          C       0.55091   0.84221   0.69977
C          C       0.44909   0.15779   0.80023
H          H       0.52575   0.83712   0.63706
H          H       0.47425   0.16288   0.86294
C          C       0.39932   0.96613   0.76840
C          C       0.60068   0.03387   0.73159
C          C       0.36758   0.96295   0.85262
C          C       0.63242   0.03705   0.64737
H          H       0.36795   0.98565   0.91886
H          H       0.63205   0.01435   0.58113
C          C       0.33546   0.93107   0.85427
C          C       0.66454   0.06893   0.64572
H          H       0.31119   0.92925   0.92110
H          H       0.68881   0.07075   0.57889
C          C       0.33339   0.90089   0.77197
C          C       0.66661   0.09911   0.72802
C          C       0.36533   0.90376   0.69105
C          C       0.63467   0.09624   0.80895
H          H       0.36540   0.88103   0.62660
H          H       0.63460   0.11897   0.87340
C          C       0.39746   0.93570   0.68920
C          C       0.60254   0.06430   0.81080
H          H       0.42153   0.93696   0.62314
H          H       0.57847   0.06304   0.87686
N          N       0.29973   0.87024   0.78106
N          N       0.70027   0.12976   0.71894
C          C       0.29195   0.84209   0.69454
C          C       0.70805   0.15791   0.80546
H          H       0.31153   0.83958   0.60198
H          H       0.68847   0.16042   0.89802
N          N       0.56395   0.56700   0.74368
N          N       0.43605   0.43300   0.75632
C          C       0.53201   0.53359   0.74687
C          C       0.46799   0.46641   0.75313
C          C       0.46968   0.49584   0.67114
C          C       0.53032   0.50416   0.82885
H          H       0.44645   0.49326   0.60559
H          H       0.55355   0.50674   0.89441
C          C       0.50088   0.52860   0.66824
C          C       0.49912   0.47140   0.83176
H          H       0.50093   0.55047   0.60074
H          H       0.49907   0.44953   0.89926
N          N       0.30219   0.43331   0.77565
N          N       0.69781   0.56669   0.72435
C          C       0.40189   0.43175   0.76237
C          C       0.59811   0.56825   0.73763
C          C       0.39694   0.45865   0.84382
C          C       0.60306   0.54135   0.65618
H          H       0.41926   0.48021   0.90764
H          H       0.58074   0.51979   0.59236
C          C       0.36381   0.45817   0.84580
C          C       0.63619   0.54183   0.65420
H          H       0.36060   0.47931   0.91031
H          H       0.63940   0.52069   0.58969
C          C       0.33404   0.43090   0.76698
C          C       0.66596   0.56910   0.73302
C          C       0.33865   0.40346   0.68920
C          C       0.66135   0.59654   0.81079
H          H       0.31631   0.38147   0.62716
H          H       0.68369   0.61853   0.87284
C          C       0.37189   0.40404   0.68663
C          C       0.62811   0.59596   0.81337
H          H       0.37461   0.38266   0.62207
H          H       0.62539   0.61734   0.87793
C          C       0.27393   0.41352   0.69373
C          C       0.72607   0.58648   0.80627
H          H       0.27210   0.39220   0.60556
H          H       0.72790   0.60780   0.89443
C          C       0.24218   0.41882   0.71347
C          C       0.75782   0.58118   0.78653
C          C       0.24410   0.44806   0.80421
C          C       0.75590   0.55194   0.69578
C          C       0.21416   0.45334   0.82430
C          C       0.78584   0.54666   0.67569
H          H       0.21614   0.47615   0.89666
H          H       0.78386   0.52385   0.60334
C          C       0.18120   0.42968   0.75387
C          C       0.81880   0.57032   0.74613
C          C       0.17929   0.40049   0.66268
C          C       0.82071   0.59951   0.83732
C          C       0.20925   0.39517   0.64283
C          C       0.79075   0.60483   0.85717
H          H       0.20728   0.37236   0.57050
H          H       0.79272   0.62764   0.92950
C          C       0.56117   0.59855   0.74613
C          C       0.43883   0.40145   0.75387
C          C       0.58769   0.62956   0.66326
C          C       0.41231   0.37044   0.83674
H          H       0.61090   0.62966   0.59404
H          H       0.38910   0.37034   0.90596
C          C       0.58488   0.66048   0.66617
C          C       0.41512   0.33952   0.83383
H          H       0.60561   0.68398   0.59785
H          H       0.39439   0.31602   0.90215
C          C       0.55477   0.66114   0.74809
C          C       0.44523   0.33886   0.75190
C          C       0.52771   0.63000   0.82723
C          C       0.47229   0.37000   0.67277
H          H       0.50436   0.63020   0.89372
H          H       0.49564   0.36980   0.60628
C          C       0.53133   0.59961   0.82960
C          C       0.46867   0.40039   0.67040
H          H       0.51028   0.57618   0.89664
H          H       0.48972   0.42382   0.60336
N          N       0.54956   0.69079   0.74161
N          N       0.45044   0.30921   0.75839
C          C       0.57435   0.72227   0.77470
C          C       0.42565   0.27773   0.72530
H          H       0.60122   0.72778   0.82060
H          H       0.39878   0.27222   0.67940
C          C       0.56827   0.75276   0.75648
C          C       0.43173   0.24724   0.74351
C          C       0.53712   0.74889   0.68190
C          C       0.46288   0.25111   0.81810
C          C       0.53154   0.77787   0.66317
C          C       0.46846   0.22213   0.83683
H          H       0.50726   0.77438   0.60305
H          H       0.49274   0.22562   0.89695
C          C       0.55682   0.81171   0.71903
C          C       0.44318   0.18829   0.78097
C          C       0.58791   0.81552   0.79414
C          C       0.41209   0.18448   0.70587
C          C       0.59361   0.78660   0.81188
C          C       0.40639   0.21340   0.68812
H          H       0.61792   0.79007   0.87162
H          H       0.38208   0.20993   0.62838
N          N       0.00549   0.56852   0.76043
N          N       0.99451   0.43148   0.73957
C          C       0.00281   0.53436   0.75531
C          C       0.99719   0.46564   0.74469
C          C       0.02825   0.52794   0.66102
C          C       0.97175   0.47206   0.83898
H          H       0.05046   0.54926   0.58759
H          H       0.94954   0.45074   0.91241
C          C       0.02549   0.49443   0.65573
C          C       0.97451   0.50557   0.84427
H          H       0.04564   0.49075   0.57821
H          H       0.95436   0.50925   0.92179
N          N       0.14367   0.69002   0.72780
N          N       0.85633   0.30998   0.77219
C          C       0.04004   0.59919   0.75244
C          C       0.95996   0.40081   0.74757
C          C       0.07015   0.59901   0.81975
C          C       0.92985   0.40099   0.68025
H          H       0.06712   0.57512   0.88079
H          H       0.93288   0.42488   0.61921
C          C       0.10417   0.62885   0.80963
C          C       0.89583   0.37115   0.69037
H          H       0.12706   0.62815   0.86442
H          H       0.87294   0.37185   0.63558
C          C       0.10898   0.66060   0.73911
C          C       0.89102   0.33940   0.76089
C          C       0.07910   0.66103   0.67145
C          C       0.92090   0.33897   0.82855
H          H       0.08254   0.68501   0.60911
H          H       0.91746   0.31499   0.89089
C          C       0.04542   0.63068   0.67570
C          C       0.95458   0.36932   0.82430
H          H       0.02300   0.63165   0.61770
H          H       0.97700   0.36835   0.88230
C          C       0.14971   0.72113   0.77328
C          C       0.85029   0.27887   0.72672
H          H       0.12786   0.72613   0.83286
H          H       0.87214   0.27387   0.66714
C          C       0.19336   0.78465   0.82459
C          C       0.80664   0.21535   0.67541
C          C       0.18599   0.75181   0.75296
C          C       0.81401   0.24819   0.74705
C          C       0.21408   0.74922   0.66094
C          C       0.78592   0.25078   0.83906
H          H       0.20856   0.72385   0.60323
H          H       0.79144   0.27615   0.89676
C          C       0.24832   0.77851   0.64085
C          C       0.75168   0.22149   0.85914
C          C       0.25583   0.81126   0.71420
C          C       0.74417   0.18874   0.78580
C          C       0.22774   0.81378   0.80673
C          C       0.77226   0.18622   0.69327
H          H       0.23332   0.83913   0.86499
H          H       0.76668   0.16087   0.63501
C          C       0.02644   0.42832   0.72906
C          C       0.97356   0.57168   0.77094
C          C       0.02764   0.39960   0.64610
C          C       0.97236   0.60040   0.85390
H          H       0.00379   0.37937   0.58525
H          H       0.99621   0.62063   0.91475
C          C       0.05909   0.39671   0.63800
C          C       0.94091   0.60329   0.86200
H          H       0.05940   0.37425   0.57195
H          H       0.94060   0.62575   0.92804
C          C       0.09077   0.42226   0.71179
C          C       0.90923   0.57774   0.78821
C          C       0.08981   0.45138   0.79192
C          C       0.91019   0.54862   0.70808
H          H       0.11370   0.47222   0.85030
H          H       0.88630   0.52778   0.64970
C          C       0.05830   0.45413   0.80097
C          C       0.94170   0.54587   0.69903
H          H       0.05851   0.47682   0.86674
H          H       0.94149   0.52318   0.63325
N          N       0.12111   0.41718   0.69613
N          N       0.87889   0.58282   0.80387
C          C       0.14995   0.43565   0.77674
C          C       0.85005   0.56435   0.72326
H          H       0.15284   0.45693   0.86753
H          H       0.84716   0.54307   0.63247
H          H       0.26959   0.46655   0.86029
H          H       0.73041   0.53345   0.63971
H          H       0.15385   0.38198   0.60633
H          H       0.84615   0.61802   0.89367
H          H       0.51734   0.72269   0.63719
H          H       0.48266   0.27731   0.86281
H          H       0.60763   0.84171   0.83928
H          H       0.39237   0.15829   0.66072
H          H       0.17183   0.78714   0.89753
H          H       0.82817   0.21286   0.60247
H          H       0.26976   0.77609   0.56687
H          H       0.73024   0.22391   0.93313
