data_crystal

_cell_length_a    50.55000
_cell_length_b    49.64000
_cell_length_c    7.86000
_cell_angle_alpha 102.30000
_cell_angle_beta  82.20000
_cell_angle_gamma 120.80000

_space_group_name_Hall 'P 1'
_space_group_name_H-M_alt  'P 1'

loop_
_symmetry_equiv_pos_as_xyz
'x,y,z'

loop_
_atom_site_label
_atom_site_type_symbol
_atom_site_fract_x
_atom_site_fract_y
_atom_site_fract_z
N          N       0.55374   0.99687   0.19984
N          N       0.44626   0.00313   0.30016
C          C       0.52694   0.99856   0.22460
C          C       0.47306   0.00144   0.27540
C          C       0.50431   0.97660   0.31412
C          C       0.49569   0.02340   0.18588
H          H       0.50775   0.95834   0.36532
H          H       0.49225   0.04166   0.13468
C          C       0.47802   0.97806   0.33885
C          C       0.52198   0.02194   0.16115
H          H       0.46110   0.96102   0.41124
H          H       0.53890   0.03898   0.08876
S          S       0.56531   0.84115   0.25887
S          S       0.43469   0.15885   0.24113
N          N       0.55291   0.88478   0.17634
N          N       0.44709   0.11522   0.32366
C          C       0.55336   0.96869   0.19277
C          C       0.44664   0.03131   0.30723
C          C       0.52759   0.94343   0.13949
C          C       0.47241   0.05657   0.36051
H          H       0.50758   0.94559   0.10378
H          H       0.49242   0.05441   0.39622
C          C       0.52730   0.91583   0.13140
C          C       0.47270   0.08417   0.36860
H          H       0.50692   0.89656   0.09077
H          H       0.49308   0.10344   0.40923
C          C       0.55252   0.91227   0.17703
C          C       0.44748   0.08773   0.32297
C          C       0.57803   0.93733   0.23339
C          C       0.42197   0.06267   0.26662
H          H       0.59771   0.93479   0.27028
H          H       0.40229   0.06521   0.22972
C          C       0.57861   0.96509   0.23932
C          C       0.42139   0.03491   0.26068
H          H       0.59869   0.98428   0.28388
H          H       0.40131   0.01572   0.21612
C          C       0.53669   0.86342   0.08705
C          C       0.46331   0.13658   0.41295
H          H       0.52182   0.86542   0.49761
H          H       0.47818   0.13458   0.00240
C          C       0.53994   0.83649   0.11277
C          C       0.46006   0.16351   0.38723
C          C       0.52782   0.80856   0.05214
C          C       0.47218   0.19144   0.44786
H          H       0.51147   0.80152   0.46175
H          H       0.48853   0.19848   0.03826
C          C       0.41887   0.97625   0.32517
C          C       0.58113   0.02375   0.17483
C          C       0.39763   0.97539   0.42386
C          C       0.60237   0.02461   0.07613
H          H       0.40252   0.99595   0.48086
H          H       0.59748   0.00405   0.01914
C          C       0.37110   0.94893   0.45132
C          C       0.62890   0.05107   0.04868
H          H       0.35549   0.94916   0.02862
H          H       0.64451   0.05084   0.47138
C          C       0.36489   0.92251   0.38411
C          C       0.63511   0.07749   0.11589
C          C       0.38506   0.92317   0.28074
C          C       0.61494   0.07683   0.21926
H          H       0.38111   0.90359   0.21897
H          H       0.61889   0.09641   0.28103
C          C       0.41181   0.94960   0.25220
C          C       0.58819   0.05040   0.24781
H          H       0.42776   0.95014   0.17039
H          H       0.57224   0.04986   0.32961
S          S       0.24140   0.83490   0.16198
S          S       0.75860   0.16510   0.33802
N          N       0.31609   0.88778   0.03215
N          N       0.68391   0.11222   0.46785
C          C       0.29830   0.86168   0.48640
C          C       0.70170   0.13832   0.01360
H          H       0.30467   0.85348   0.38410
H          H       0.69533   0.14652   0.11590
C          C       0.26830   0.83701   0.03342
C          C       0.73170   0.16299   0.46658
C          C       0.25625   0.81046   0.45923
C          C       0.74375   0.18954   0.04077
H          H       0.26749   0.80476   0.37514
H          H       0.73251   0.19524   0.12486
N          N       0.55388   0.55424   0.25328
N          N       0.44612   0.44576   0.24671
C          C       0.52687   0.52702   0.25165
C          C       0.47313   0.47298   0.24836
C          C       0.47469   0.49789   0.31966
C          C       0.52531   0.50211   0.18035
H          H       0.45507   0.49603   0.37659
H          H       0.54493   0.50397   0.12342
C          C       0.50140   0.52471   0.32110
C          C       0.49860   0.47529   0.17890
H          H       0.50272   0.54391   0.37912
H          H       0.49728   0.45609   0.12088
S          S       0.28988   0.45744   0.16386
S          S       0.71012   0.54256   0.33614
N          N       0.33435   0.44555   0.24882
N          N       0.66565   0.55445   0.25118
C          C       0.41826   0.44603   0.24791
C          C       0.58174   0.55397   0.25209
C          C       0.41405   0.46950   0.17853
C          C       0.58595   0.53050   0.32147
H          H       0.43280   0.48814   0.12058
H          H       0.56720   0.51186   0.37942
C          C       0.38624   0.46891   0.18086
C          C       0.61376   0.53109   0.31914
H          H       0.38306   0.48715   0.12707
H          H       0.61694   0.51285   0.37293
C          C       0.36183   0.44526   0.25389
C          C       0.63817   0.55474   0.24611
C          C       0.36610   0.42192   0.32336
C          C       0.63390   0.57808   0.17665
H          H       0.34755   0.40313   0.37996
H          H       0.65245   0.59687   0.12004
C          C       0.39377   0.42232   0.32031
C          C       0.60623   0.57768   0.17970
H          H       0.39708   0.40427   0.37639
H          H       0.60292   0.59573   0.12361
C          C       0.31278   0.42949   0.33889
C          C       0.68722   0.57051   0.16111
H          H       0.31472   0.41507   0.43124
H          H       0.68528   0.58493   0.06876
C          C       0.28571   0.43224   0.31100
C          C       0.71429   0.56776   0.18901
C          C       0.25781   0.41973   0.37334
C          C       0.74219   0.58027   0.12666
H          H       0.25118   0.40335   0.46433
H          H       0.74882   0.59665   0.03567
C          C       0.23872   0.43064   0.30289
C          C       0.76128   0.56936   0.19712
C          C       0.25341   0.45192   0.18460
C          C       0.74659   0.54808   0.31539
C          C       0.23860   0.46534   0.10341
C          C       0.76140   0.53466   0.39659
H          H       0.24976   0.48158   0.01227
H          H       0.75024   0.51842   0.48773
C          C       0.20907   0.45786   0.13978
C          C       0.79093   0.54214   0.36023
C          C       0.19442   0.43661   0.25816
C          C       0.80558   0.56339   0.24184
C          C       0.20916   0.42306   0.33888
C          C       0.79084   0.57694   0.16112
H          H       0.19800   0.40686   0.43021
H          H       0.80200   0.59314   0.06979
C          C       0.55294   0.58182   0.25477
C          C       0.44706   0.41818   0.24523
C          C       0.57562   0.60613   0.33120
C          C       0.42438   0.39387   0.16881
H          H       0.59343   0.60302   0.39067
H          H       0.40657   0.39698   0.10933
C          C       0.57538   0.63351   0.33339
C          C       0.42462   0.36649   0.16662
H          H       0.59341   0.65192   0.39307
H          H       0.40659   0.34808   0.10693
C          C       0.55242   0.63763   0.25922
C          C       0.44758   0.36237   0.24078
C          C       0.52974   0.61335   0.18262
C          C       0.47026   0.38665   0.31738
H          H       0.51176   0.61633   0.12495
H          H       0.48824   0.38367   0.37505
C          C       0.52982   0.58584   0.18109
C          C       0.47018   0.41416   0.31891
H          H       0.51199   0.56724   0.11996
H          H       0.48801   0.43276   0.38005
S          S       0.53925   0.70892   0.16102
S          S       0.46075   0.29108   0.33898
N          N       0.55166   0.66488   0.25179
N          N       0.44834   0.33512   0.24821
C          C       0.56703   0.68657   0.34112
C          C       0.43297   0.31343   0.15888
H          H       0.58113   0.68494   0.43553
H          H       0.41887   0.31506   0.06448
C          C       0.56410   0.71344   0.30943
C          C       0.43590   0.28656   0.19057
C          C       0.57644   0.74152   0.36860
C          C       0.42356   0.25848   0.13140
H          H       0.59258   0.74843   0.45988
H          H       0.40742   0.25157   0.04012
C          C       0.56572   0.76043   0.29426
C          C       0.43428   0.23957   0.20574
C          C       0.54470   0.74543   0.17690
C          C       0.45530   0.25457   0.32310
C          C       0.53144   0.76003   0.09233
C          C       0.46856   0.23997   0.40767
H          H       0.51540   0.74858   0.00180
H          H       0.48460   0.25142   0.49820
C          C       0.53896   0.78974   0.12420
C          C       0.46104   0.21026   0.37580
C          C       0.56007   0.80474   0.24123
C          C       0.43993   0.19526   0.25877
C          C       0.57336   0.79018   0.32557
C          C       0.42664   0.20982   0.17443
H          H       0.58939   0.80158   0.41619
H          H       0.41061   0.19842   0.08382
C          C       0.02094   0.52108   0.34518
C          C       0.97906   0.47892   0.15482
H          H       0.03710   0.53714   0.42296
H          H       0.96290   0.46286   0.07704
C          C       0.02231   0.49469   0.32058
C          C       0.97769   0.50531   0.17942
H          H       0.03943   0.49020   0.37758
H          H       0.96057   0.50980   0.12243
S          S       0.15423   0.70685   0.43750
S          S       0.84577   0.29315   0.06250
N          N       0.09957   0.66077   0.44611
N          N       0.90043   0.33923   0.05389
C          C       0.02281   0.58013   0.33631
C          C       0.97719   0.41987   0.16369
C          C       0.05129   0.58730   0.28188
C          C       0.94871   0.41270   0.21812
H          H       0.05352   0.57185   0.20756
H          H       0.94648   0.42815   0.29245
C          C       0.07644   0.61390   0.31918
C          C       0.92356   0.38610   0.18083
H          H       0.09834   0.61897   0.27626
H          H       0.90166   0.38103   0.22374
C          C       0.07402   0.63416   0.41334
C          C       0.92598   0.36584   0.08667
C          C       0.04549   0.62711   0.46569
C          C       0.95451   0.37289   0.03431
H          H       0.04269   0.64247   0.03703
H          H       0.95731   0.35753   0.46297
C          C       0.02038   0.60069   0.42867
C          C       0.97962   0.39931   0.07133
C          C       0.10041   0.67784   0.05214
C          C       0.89959   0.32216   0.44786
H          H       0.08156   0.67190   0.12854
H          H       0.91844   0.32810   0.37145
C          C       0.12833   0.70534   0.06360
C          C       0.87167   0.29466   0.43639
C          C       0.13851   0.73048   0.14775
C          C       0.86149   0.26952   0.35225
H          H       0.12464   0.73349   0.22672
H          H       0.87536   0.26651   0.27329
C          C       0.16848   0.75241   0.11021
C          C       0.83152   0.24759   0.38980
C          C       0.18027   0.74227   0.49631
C          C       0.81973   0.25773   0.00369
C          C       0.20902   0.76011   0.44282
C          C       0.79098   0.23989   0.05718
H          H       0.21769   0.75207   0.35496
H          H       0.78231   0.24793   0.14504
C          C       0.22653   0.78857   0.00129
C          C       0.77347   0.21143   0.49871
C          C       0.21478   0.79878   0.11385
C          C       0.78522   0.20122   0.38615
C          C       0.18590   0.78078   0.16936
C          C       0.81410   0.21922   0.33064
H          H       0.17683   0.78853   0.25685
H          H       0.82317   0.21147   0.24315
C          C       0.03143   0.44681   0.20360
C          C       0.96857   0.55319   0.29640
C          C       0.03419   0.42138   0.25643
C          C       0.96581   0.57862   0.24357
H          H       0.01429   0.40148   0.29916
H          H       0.98571   0.59852   0.20085
C          C       0.06180   0.42149   0.25736
C          C       0.93820   0.57851   0.24264
H          H       0.06382   0.40174   0.29890
H          H       0.93618   0.59826   0.20110
C          C       0.08748   0.44668   0.20214
C          C       0.91252   0.55332   0.29786
C          C       0.08487   0.47222   0.15171
C          C       0.91513   0.52778   0.34830
H          H       0.10473   0.49238   0.11288
H          H       0.89527   0.50762   0.38711
C          C       0.05736   0.47233   0.15269
C          C       0.94264   0.52767   0.34730
H          H       0.05555   0.49236   0.11225
H          H       0.94445   0.50764   0.38775
S          S       0.15826   0.43169   0.28188
S          S       0.84174   0.56831   0.21813
N          N       0.11454   0.44552   0.20504
N          N       0.88546   0.55448   0.29496
C          C       0.13589   0.46102   0.11313
C          C       0.86411   0.53898   0.38688
H          H       0.13391   0.47570   0.02198
H          H       0.86609   0.52430   0.47803
C          C       0.16253   0.45727   0.13636
C          C       0.83747   0.54273   0.36364
C          C       0.19018   0.46922   0.07151
C          C       0.80982   0.53078   0.42849
H          H       0.19686   0.48574   0.48116
H          H       0.80314   0.51426   0.01884
N          N       0.99684   0.55341   0.29991
N          N       0.00316   0.44659   0.20009
C          C       0.99869   0.52683   0.27538
C          C       0.00131   0.47317   0.22463
H          H       0.99841   0.59543   0.47305
H          H       0.00159   0.40457   0.02695
N          N       0.55374   0.99687   0.69984
N          N       0.44626   0.00313   0.80016
C          C       0.52694   0.99856   0.72461
C          C       0.47306   0.00144   0.77540
C          C       0.50431   0.97660   0.81412
C          C       0.49569   0.02340   0.68588
H          H       0.50775   0.95834   0.86532
H          H       0.49225   0.04166   0.63468
C          C       0.47802   0.97806   0.83884
C          C       0.52198   0.02194   0.66116
H          H       0.46110   0.96102   0.91124
H          H       0.53890   0.03898   0.58876
S          S       0.56531   0.84115   0.75887
S          S       0.43469   0.15885   0.74113
N          N       0.55291   0.88478   0.67634
N          N       0.44709   0.11522   0.82366
C          C       0.55336   0.96869   0.69278
C          C       0.44664   0.03131   0.80723
C          C       0.52759   0.94343   0.63949
C          C       0.47241   0.05657   0.86050
H          H       0.50758   0.94559   0.60378
H          H       0.49242   0.05441   0.89622
C          C       0.52730   0.91583   0.63140
C          C       0.47270   0.08417   0.86860
H          H       0.50692   0.89656   0.59078
H          H       0.49308   0.10344   0.90923
C          C       0.55252   0.91227   0.67704
C          C       0.44748   0.08773   0.82296
C          C       0.57803   0.93733   0.73339
C          C       0.42197   0.06267   0.76662
H          H       0.59771   0.93479   0.77028
H          H       0.40229   0.06521   0.72972
C          C       0.57861   0.96509   0.73932
C          C       0.42139   0.03491   0.76068
H          H       0.59869   0.98428   0.78388
H          H       0.40131   0.01572   0.71612
C          C       0.53669   0.86342   0.58705
C          C       0.46331   0.13658   0.91295
H          H       0.52182   0.86542   0.99761
H          H       0.47818   0.13458   0.50240
C          C       0.53994   0.83649   0.61277
C          C       0.46006   0.16351   0.88723
C          C       0.52782   0.80856   0.55214
C          C       0.47218   0.19144   0.94786
H          H       0.51147   0.80152   0.96175
H          H       0.48853   0.19848   0.53826
C          C       0.41887   0.97625   0.82518
C          C       0.58113   0.02375   0.67483
C          C       0.39763   0.97539   0.92387
C          C       0.60237   0.02461   0.57614
H          H       0.40252   0.99595   0.98086
H          H       0.59748   0.00405   0.51914
C          C       0.37110   0.94893   0.95132
C          C       0.62890   0.05107   0.54868
H          H       0.35549   0.94916   0.52862
H          H       0.64451   0.05084   0.97138
C          C       0.36489   0.92251   0.88412
C          C       0.63511   0.07749   0.61589
C          C       0.38506   0.92317   0.78073
C          C       0.61494   0.07683   0.71926
H          H       0.38111   0.90359   0.71897
H          H       0.61889   0.09641   0.78104
C          C       0.41181   0.94960   0.75219
C          C       0.58819   0.05040   0.74781
H          H       0.42776   0.95014   0.67039
H          H       0.57224   0.04986   0.82961
S          S       0.24140   0.83490   0.66198
S          S       0.75860   0.16510   0.83802
N          N       0.31609   0.88778   0.53215
N          N       0.68391   0.11222   0.96785
C          C       0.29830   0.86168   0.98640
C          C       0.70170   0.13832   0.51360
H          H       0.30467   0.85348   0.88409
H          H       0.69533   0.14652   0.61590
C          C       0.26830   0.83701   0.53342
C          C       0.73170   0.16299   0.96658
C          C       0.25625   0.81046   0.95923
C          C       0.74375   0.18954   0.54077
H          H       0.26749   0.80476   0.87514
H          H       0.73251   0.19524   0.62486
N          N       0.55388   0.55424   0.75328
N          N       0.44612   0.44576   0.74672
C          C       0.52687   0.52702   0.75165
C          C       0.47313   0.47298   0.74835
C          C       0.47469   0.49789   0.81966
C          C       0.52531   0.50211   0.68035
H          H       0.45507   0.49603   0.87659
H          H       0.54493   0.50397   0.62342
C          C       0.50140   0.52471   0.82110
C          C       0.49860   0.47529   0.67890
H          H       0.50272   0.54391   0.87912
H          H       0.49728   0.45609   0.62088
S          S       0.28988   0.45744   0.66386
S          S       0.71012   0.54256   0.83614
N          N       0.33435   0.44555   0.74882
N          N       0.66565   0.55445   0.75118
C          C       0.41826   0.44603   0.74791
C          C       0.58174   0.55397   0.75209
C          C       0.41405   0.46950   0.67853
C          C       0.58595   0.53050   0.82147
H          H       0.43280   0.48814   0.62059
H          H       0.56720   0.51186   0.87942
C          C       0.38624   0.46891   0.68087
C          C       0.61376   0.53109   0.81914
H          H       0.38306   0.48715   0.62708
H          H       0.61694   0.51285   0.87292
C          C       0.36183   0.44526   0.75389
C          C       0.63817   0.55474   0.74611
C          C       0.36610   0.42192   0.82336
C          C       0.63390   0.57808   0.67665
H          H       0.34755   0.40313   0.87996
H          H       0.65245   0.59687   0.62004
C          C       0.39377   0.42232   0.82031
C          C       0.60623   0.57768   0.67970
H          H       0.39708   0.40427   0.87639
H          H       0.60292   0.59573   0.62361
C          C       0.31278   0.42949   0.83889
C          C       0.68722   0.57051   0.66111
H          H       0.31472   0.41507   0.93124
H          H       0.68528   0.58493   0.56876
C          C       0.28571   0.43224   0.81100
C          C       0.71429   0.56776   0.68900
C          C       0.25781   0.41973   0.87335
C          C       0.74219   0.58027   0.62666
H          H       0.25118   0.40335   0.96433
H          H       0.74882   0.59665   0.53567
C          C       0.23872   0.43064   0.80289
C          C       0.76128   0.56936   0.69712
C          C       0.25341   0.45192   0.68461
C          C       0.74659   0.54808   0.81540
C          C       0.23860   0.46534   0.60341
C          C       0.76140   0.53466   0.89659
H          H       0.24976   0.48158   0.51227
H          H       0.75024   0.51842   0.98773
C          C       0.20907   0.45786   0.63978
C          C       0.79093   0.54214   0.86023
C          C       0.19442   0.43661   0.75816
C          C       0.80558   0.56339   0.74184
C          C       0.20916   0.42306   0.83888
C          C       0.79084   0.57694   0.66112
H          H       0.19800   0.40686   0.93021
H          H       0.80200   0.59314   0.56979
C          C       0.55294   0.58182   0.75477
C          C       0.44706   0.41818   0.74523
C          C       0.57562   0.60613   0.83120
C          C       0.42438   0.39387   0.66880
H          H       0.59343   0.60302   0.89068
H          H       0.40657   0.39698   0.60933
C          C       0.57538   0.63351   0.83339
C          C       0.42462   0.36649   0.66662
H          H       0.59341   0.65192   0.89307
H          H       0.40659   0.34808   0.60693
C          C       0.55242   0.63763   0.75922
C          C       0.44758   0.36237   0.74078
C          C       0.52974   0.61335   0.68262
C          C       0.47026   0.38665   0.81738
H          H       0.51176   0.61633   0.62495
H          H       0.48824   0.38367   0.87505
C          C       0.52982   0.58584   0.68109
C          C       0.47018   0.41416   0.81891
H          H       0.51199   0.56724   0.61996
H          H       0.48801   0.43276   0.88004
S          S       0.53925   0.70892   0.66102
S          S       0.46075   0.29108   0.83899
N          N       0.55166   0.66488   0.75179
N          N       0.44834   0.33512   0.74821
C          C       0.56703   0.68657   0.84112
C          C       0.43297   0.31343   0.65888
H          H       0.58113   0.68494   0.93553
H          H       0.41887   0.31506   0.56448
C          C       0.56410   0.71344   0.80943
C          C       0.43590   0.28656   0.69057
C          C       0.57644   0.74152   0.86860
C          C       0.42356   0.25848   0.63140
H          H       0.59258   0.74843   0.95988
H          H       0.40742   0.25157   0.54012
C          C       0.56572   0.76043   0.79426
C          C       0.43428   0.23957   0.70574
C          C       0.54470   0.74543   0.67690
C          C       0.45530   0.25457   0.82310
C          C       0.53144   0.76003   0.59233
C          C       0.46856   0.23997   0.90767
H          H       0.51540   0.74858   0.50180
H          H       0.48460   0.25142   0.99820
C          C       0.53896   0.78974   0.62420
C          C       0.46104   0.21026   0.87580
C          C       0.56007   0.80474   0.74123
C          C       0.43993   0.19526   0.75878
C          C       0.57336   0.79018   0.82557
C          C       0.42664   0.20982   0.67443
H          H       0.58939   0.80158   0.91619
H          H       0.41061   0.19842   0.58382
C          C       0.02094   0.52108   0.84518
C          C       0.97906   0.47892   0.65482
H          H       0.03710   0.53714   0.92297
H          H       0.96290   0.46286   0.57704
C          C       0.02231   0.49469   0.82058
C          C       0.97769   0.50531   0.67942
H          H       0.03943   0.49020   0.87758
H          H       0.96057   0.50980   0.62243
S          S       0.15423   0.70685   0.93750
S          S       0.84577   0.29315   0.56250
N          N       0.09957   0.66077   0.94611
N          N       0.90043   0.33923   0.55389
C          C       0.02281   0.58013   0.83631
C          C       0.97719   0.41987   0.66369
C          C       0.05129   0.58730   0.78189
C          C       0.94871   0.41270   0.71811
H          H       0.05352   0.57185   0.70756
H          H       0.94648   0.42815   0.79245
C          C       0.07644   0.61390   0.81917
C          C       0.92356   0.38610   0.68083
H          H       0.09834   0.61897   0.77626
H          H       0.90166   0.38103   0.72374
C          C       0.07402   0.63416   0.91334
C          C       0.92598   0.36584   0.58667
C          C       0.04549   0.62711   0.96569
C          C       0.95451   0.37289   0.53431
H          H       0.04269   0.64247   0.53704
H          H       0.95731   0.35753   0.96297
C          C       0.02038   0.60069   0.92867
C          C       0.97962   0.39931   0.57134
C          C       0.10041   0.67784   0.55214
C          C       0.89959   0.32216   0.94786
H          H       0.08156   0.67190   0.62855
H          H       0.91844   0.32810   0.87146
C          C       0.12833   0.70534   0.56361
C          C       0.87167   0.29466   0.93640
C          C       0.13851   0.73048   0.64775
C          C       0.86149   0.26952   0.85225
H          H       0.12464   0.73349   0.72671
H          H       0.87536   0.26651   0.77329
C          C       0.16848   0.75241   0.61020
C          C       0.83152   0.24759   0.88980
C          C       0.18027   0.74227   0.99630
C          C       0.81973   0.25773   0.50370
C          C       0.20902   0.76011   0.94282
C          C       0.79098   0.23989   0.55719
H          H       0.21769   0.75207   0.85496
H          H       0.78231   0.24793   0.64504
C          C       0.22653   0.78857   0.50130
C          C       0.77347   0.21143   0.99871
C          C       0.21478   0.79878   0.61385
C          C       0.78522   0.20122   0.88615
C          C       0.18590   0.78078   0.66936
C          C       0.81410   0.21922   0.83064
H          H       0.17683   0.78853   0.75686
H          H       0.82317   0.21147   0.74315
C          C       0.03143   0.44681   0.70360
C          C       0.96857   0.55319   0.79640
C          C       0.03419   0.42138   0.75643
C          C       0.96581   0.57862   0.74357
H          H       0.01429   0.40148   0.79915
H          H       0.98571   0.59852   0.70085
C          C       0.06180   0.42149   0.75736
C          C       0.93820   0.57851   0.74264
H          H       0.06382   0.40174   0.79890
H          H       0.93618   0.59826   0.70110
C          C       0.08748   0.44668   0.70214
C          C       0.91252   0.55332   0.79786
C          C       0.08487   0.47222   0.65170
C          C       0.91513   0.52778   0.84830
H          H       0.10473   0.49238   0.61289
H          H       0.89527   0.50762   0.88712
C          C       0.05736   0.47233   0.65270
C          C       0.94264   0.52767   0.84731
H          H       0.05555   0.49236   0.61225
H          H       0.94445   0.50764   0.88775
S          S       0.15826   0.43169   0.78187
S          S       0.84174   0.56831   0.71813
N          N       0.11454   0.44552   0.70504
N          N       0.88546   0.55448   0.79496
C          C       0.13589   0.46102   0.61313
C          C       0.86411   0.53898   0.88687
H          H       0.13391   0.47570   0.52197
H          H       0.86609   0.52430   0.97803
C          C       0.16253   0.45727   0.63636
C          C       0.83747   0.54273   0.86364
C          C       0.19018   0.46922   0.57151
C          C       0.80982   0.53078   0.92849
H          H       0.19686   0.48574   0.98116
H          H       0.80314   0.51426   0.51884
N          N       0.99684   0.55341   0.79992
N          N       0.00316   0.44659   0.70009
C          C       0.99869   0.52683   0.77538
C          C       0.00131   0.47317   0.72463
H          H       0.99841   0.59543   0.97305
H          H       0.00159   0.40457   0.52695
