data_crystal

_cell_length_a    25.84000
_cell_length_b    25.84000
_cell_length_c    7.68000
_cell_angle_alpha 90.00000
_cell_angle_beta  90.00000
_cell_angle_gamma 120.00000

_space_group_name_Hall 'P 1'
_space_group_name_H-M_alt  'P 1'

loop_
_symmetry_equiv_pos_as_xyz
'x,y,z'

loop_
_atom_site_label
_atom_site_type_symbol
_atom_site_fract_x
_atom_site_fract_y
_atom_site_fract_z
C          C       0.06155   0.03770   0.05714
C          C       0.96230   0.02385   0.05714
C          C       0.97615   0.93845   0.05714
C          C       0.02453   0.06325   0.05526
C          C       0.93675   0.96128   0.05526
C          C       0.03872   0.97547   0.05526
C          C       0.04914   0.12684   0.04522
C          C       0.87316   0.92230   0.04522
C          C       0.07770   0.95086   0.04522
C          C       0.10486   0.16471   0.46069
C          C       0.83529   0.94015   0.46069
C          C       0.05985   0.89514   0.46069
C          C       0.12756   0.22530   0.44971
C          C       0.77470   0.90226   0.44971
C          C       0.09774   0.87244   0.44971
C          C       0.09748   0.25316   0.02144
C          C       0.74684   0.84432   0.02144
C          C       0.15568   0.90252   0.02144
C          C       0.04265   0.21623   0.10519
C          C       0.78377   0.82642   0.10519
C          C       0.17358   0.95735   0.10519
C          C       0.01889   0.15549   0.11721
C          C       0.84451   0.86340   0.11721
C          C       0.13660   0.98111   0.11721
C          C       0.12033   0.31703   0.01211
C          C       0.68297   0.80330   0.01211
C          C       0.19670   0.87967   0.01211
N          N       0.17063   0.35075   0.43344
N          N       0.64925   0.81988   0.43344
N          N       0.18012   0.82937   0.43344
C          C       0.20062   0.41300   0.40880
C          C       0.58700   0.78762   0.40880
C          C       0.21238   0.79938   0.40880
C          C       0.25583   0.44070   0.32195
C          C       0.55930   0.81513   0.32195
C          C       0.18487   0.74417   0.32195
C          C       0.28742   0.50136   0.29506
C          C       0.49864   0.78606   0.29506
C          C       0.21394   0.71258   0.29506
C          C       0.26536   0.53905   0.35536
C          C       0.46095   0.72631   0.35536
C          C       0.27369   0.73464   0.35536
C          C       0.20881   0.51018   0.44232
C          C       0.48982   0.69863   0.44232
C          C       0.30137   0.79119   0.44232
C          C       0.17803   0.44941   0.46776
C          C       0.55059   0.72862   0.46776
C          C       0.27138   0.82197   0.46776
C          C       0.39705   0.69637   0.33528
C          C       0.30363   0.70068   0.33528
C          C       0.29932   0.60295   0.33528
C          C       0.36637   0.72864   0.33157
C          C       0.27136   0.63773   0.33157
C          C       0.36227   0.63363   0.33157
H          H       0.11019   0.06747   0.05398
H          H       0.93253   0.04272   0.05398
H          H       0.95728   0.88981   0.05398
H          H       0.12944   0.14519   0.39822
H          H       0.85481   0.98425   0.39822
H          H       0.01575   0.87056   0.39822
H          H       0.17015   0.25185   0.38056
H          H       0.74815   0.91830   0.38056
H          H       0.08170   0.82985   0.38056
H          H       0.01775   0.23582   0.16527
H          H       0.76418   0.78193   0.16527
H          H       0.21807   0.98225   0.16527
H          H       0.97659   0.12890   0.18763
H          H       0.87110   0.84769   0.18763
H          H       0.15231   0.02341   0.18763
H          H       0.09345   0.33419   0.07365
H          H       0.66581   0.75926   0.07365
H          H       0.24074   0.90655   0.07365
H          H       0.27430   0.41330   0.27283
H          H       0.58670   0.86100   0.27283
H          H       0.13900   0.72570   0.27283
H          H       0.33001   0.52067   0.22396
H          H       0.47933   0.80934   0.22396
H          H       0.19066   0.66999   0.22396
H          H       0.19017   0.53685   0.49606
H          H       0.46315   0.65332   0.49606
H          H       0.34668   0.80983   0.49606
H          H       0.13528   0.42985   0.03772
H          H       0.57015   0.70543   0.03772
H          H       0.29457   0.86472   0.03772
H          H       0.39248   0.77761   0.33773
H          H       0.22239   0.61487   0.33773
H          H       0.38513   0.60752   0.33773
C          C       0.06155   0.03770   0.55714
C          C       0.96230   0.02385   0.55714
C          C       0.97615   0.93845   0.55714
C          C       0.02453   0.06325   0.55526
C          C       0.93675   0.96128   0.55526
C          C       0.03872   0.97547   0.55526
C          C       0.04914   0.12684   0.54523
C          C       0.87316   0.92230   0.54523
C          C       0.07770   0.95086   0.54523
C          C       0.10486   0.16471   0.96069
C          C       0.83529   0.94015   0.96069
C          C       0.05985   0.89514   0.96069
C          C       0.12756   0.22530   0.94971
C          C       0.77470   0.90226   0.94971
C          C       0.09774   0.87244   0.94971
C          C       0.09748   0.25316   0.52144
C          C       0.74684   0.84432   0.52144
C          C       0.15568   0.90252   0.52144
C          C       0.04265   0.21623   0.60519
C          C       0.78377   0.82642   0.60519
C          C       0.17358   0.95735   0.60519
C          C       0.01889   0.15549   0.61721
C          C       0.84451   0.86340   0.61721
C          C       0.13660   0.98111   0.61721
C          C       0.12033   0.31703   0.51211
C          C       0.68297   0.80330   0.51211
C          C       0.19670   0.87967   0.51211
N          N       0.17063   0.35075   0.93344
N          N       0.64925   0.81988   0.93344
N          N       0.18012   0.82937   0.93344
C          C       0.20062   0.41300   0.90880
C          C       0.58700   0.78762   0.90880
C          C       0.21238   0.79938   0.90880
C          C       0.25583   0.44070   0.82195
C          C       0.55930   0.81513   0.82195
C          C       0.18487   0.74417   0.82195
C          C       0.28742   0.50136   0.79506
C          C       0.49864   0.78606   0.79506
C          C       0.21394   0.71258   0.79506
C          C       0.26536   0.53905   0.85537
C          C       0.46095   0.72631   0.85537
C          C       0.27369   0.73464   0.85537
C          C       0.20881   0.51018   0.94232
C          C       0.48982   0.69863   0.94232
C          C       0.30137   0.79119   0.94232
C          C       0.17803   0.44941   0.96776
C          C       0.55059   0.72862   0.96776
C          C       0.27138   0.82197   0.96776
C          C       0.39705   0.69637   0.83529
C          C       0.30363   0.70068   0.83529
C          C       0.29932   0.60295   0.83529
C          C       0.36637   0.72864   0.83157
C          C       0.27136   0.63773   0.83157
C          C       0.36227   0.63363   0.83157
H          H       0.11019   0.06747   0.55398
H          H       0.93253   0.04272   0.55398
H          H       0.95728   0.88981   0.55398
H          H       0.12944   0.14519   0.89823
H          H       0.85481   0.98425   0.89823
H          H       0.01575   0.87056   0.89823
H          H       0.17015   0.25185   0.88057
H          H       0.74815   0.91830   0.88057
H          H       0.08170   0.82985   0.88057
H          H       0.01775   0.23582   0.66527
H          H       0.76418   0.78193   0.66527
H          H       0.21807   0.98225   0.66527
H          H       0.97659   0.12890   0.68763
H          H       0.87110   0.84769   0.68763
H          H       0.15231   0.02341   0.68763
H          H       0.09345   0.33419   0.57365
H          H       0.66581   0.75926   0.57365
H          H       0.24074   0.90655   0.57365
H          H       0.27430   0.41330   0.77284
H          H       0.58670   0.86100   0.77284
H          H       0.13900   0.72570   0.77284
H          H       0.33001   0.52067   0.72397
H          H       0.47933   0.80934   0.72397
H          H       0.19066   0.66999   0.72397
H          H       0.19017   0.53685   0.99606
H          H       0.46315   0.65332   0.99606
H          H       0.34668   0.80983   0.99606
H          H       0.13528   0.42985   0.53772
H          H       0.57015   0.70543   0.53772
H          H       0.29457   0.86472   0.53772
H          H       0.39248   0.77761   0.83773
H          H       0.22239   0.61487   0.83773
H          H       0.38513   0.60752   0.83773
