data_crystal

_cell_length_a    40.37000
_cell_length_b    40.37000
_cell_length_c    7.32000
_cell_angle_alpha 90.00000
_cell_angle_beta  90.00000
_cell_angle_gamma 120.00000

_space_group_name_Hall 'P 1'
_space_group_name_H-M_alt  'P 1'

loop_
_symmetry_equiv_pos_as_xyz
'x,y,z'

loop_
_atom_site_label
_atom_site_type_symbol
_atom_site_fract_x
_atom_site_fract_y
_atom_site_fract_z
C          C       0.88165   0.68753   0.15658
C          C       0.31247   0.19412   0.15658
C          C       0.80588   0.11835   0.15658
C          C       0.88941   0.65992   0.22975
C          C       0.34008   0.22949   0.22975
C          C       0.77051   0.11059   0.22975
C          C       0.92574   0.66518   0.23250
C          C       0.33482   0.26056   0.23250
C          C       0.73944   0.07426   0.23250
C          C       0.95738   0.69862   0.15715
C          C       0.30138   0.25876   0.15715
C          C       0.74124   0.04262   0.15715
C          C       0.94926   0.72667   0.08557
C          C       0.27333   0.22259   0.08557
C          C       0.77741   0.05074   0.08557
C          C       0.91283   0.72109   0.08612
C          C       0.27891   0.19174   0.08612
C          C       0.80826   0.08717   0.08612
C          C       0.99506   0.70295   0.14427
C          C       0.29705   0.29211   0.14427
C          C       0.70789   0.00494   0.14427
C          C       0.03668   0.67464   0.12862
C          C       0.32536   0.36204   0.12862
C          C       0.63796   0.96332   0.12862
C          C       0.00054   0.67124   0.15285
C          C       0.32876   0.32930   0.15285
C          C       0.67070   0.99946   0.15285
C          C       0.06809   0.71183   0.09612
C          C       0.28817   0.35626   0.09612
C          C       0.64374   0.93191   0.09612
C          C       0.06421   0.74408   0.08605
C          C       0.25592   0.32013   0.08605
C          C       0.67987   0.93579   0.08605
C          C       0.02798   0.73912   0.11299
C          C       0.26088   0.28886   0.11299
C          C       0.71114   0.97202   0.11299
C          C       0.09604   0.78195   0.04812
C          C       0.21805   0.31409   0.04812
C          C       0.68591   0.90396   0.04812
C          C       0.72996   0.70052   0.49369
C          C       0.29948   0.02944   0.49369
C          C       0.97056   0.27004   0.49369
C          C       0.73543   0.66857   0.46447
C          C       0.33143   0.06686   0.46447
C          C       0.93314   0.26457   0.46447
C          C       0.76985   0.67082   0.00136
C          C       0.32918   0.09903   0.00136
C          C       0.90097   0.23015   0.00136
C          C       0.80105   0.70458   0.06941
C          C       0.29542   0.09647   0.06941
C          C       0.90353   0.19895   0.06941
C          C       0.79607   0.73611   0.10024
C          C       0.26389   0.05996   0.10024
C          C       0.94004   0.20393   0.10024
C          C       0.76179   0.73435   0.06617
C          C       0.26565   0.02744   0.06617
C          C       0.97256   0.23821   0.06617
N          N       0.83676   0.70781   0.10249
N          N       0.29219   0.12895   0.10249
N          N       0.87105   0.16324   0.10249
C          C       0.84282   0.68062   0.15437
C          C       0.31938   0.16220   0.15437
C          C       0.83780   0.15718   0.15437
C          C       0.52472   0.94720   0.11001
C          C       0.05280   0.57752   0.11001
C          C       0.42248   0.47528   0.11001
C          C       0.53162   0.91878   0.18007
C          C       0.08122   0.61284   0.18007
C          C       0.38716   0.46838   0.18007
C          C       0.56783   0.92384   0.18927
C          C       0.07616   0.64399   0.18927
C          C       0.35601   0.43217   0.18927
C          C       0.60027   0.95848   0.12788
C          C       0.04152   0.64179   0.12788
C          C       0.35821   0.39973   0.12788
C          C       0.59307   0.98745   0.05947
C          C       0.01255   0.60562   0.05947
C          C       0.39438   0.40693   0.05947
C          C       0.55656   0.98158   0.05051
C          C       0.01842   0.57498   0.05051
C          C       0.42502   0.44344   0.05051
C          C       0.26772   0.96030   0.41635
C          C       0.03970   0.30742   0.41635
C          C       0.69258   0.73228   0.41635
C          C       0.26792   0.92572   0.39572
C          C       0.07428   0.34220   0.39572
C          C       0.65780   0.73208   0.39572
C          C       0.30378   0.92804   0.38834
C          C       0.07196   0.37574   0.38834
C          C       0.62426   0.69622   0.38834
C          C       0.33826   0.96230   0.42033
C          C       0.03770   0.37596   0.42033
C          C       0.62404   0.66174   0.42033
C          C       0.33613   0.99581   0.44448
C          C       0.00419   0.34032   0.44448
C          C       0.65968   0.66387   0.44448
C          C       0.30114   0.99555   0.44834
C          C       0.00445   0.30559   0.44834
C          C       0.69441   0.69886   0.44834
C          C       0.23306   0.88936   0.40758
C          C       0.11064   0.34370   0.40758
C          C       0.65630   0.76694   0.40758
C          C       0.37370   0.96252   0.44421
C          C       0.03748   0.41118   0.44421
C          C       0.58882   0.62630   0.44421
C          C       0.19676   0.88541   0.36474
C          C       0.11459   0.31135   0.36474
C          C       0.68865   0.80324   0.36474
C          C       0.16329   0.85219   0.40216
C          C       0.14781   0.31110   0.40216
C          C       0.68890   0.83671   0.40216
C          C       0.16345   0.82045   0.48030
C          C       0.17955   0.34300   0.48030
C          C       0.65700   0.83655   0.48030
C          C       0.19893   0.82337   0.01670
C          C       0.17663   0.37556   0.01670
C          C       0.62444   0.80107   0.01670
C          C       0.23272   0.85637   0.48146
C          C       0.14363   0.37635   0.48146
C          C       0.62365   0.76728   0.48146
C          C       0.37470   0.93004   0.01560
C          C       0.06996   0.44466   0.01560
C          C       0.55534   0.62530   0.01560
C          C       0.40878   0.93104   0.04482
C          C       0.06896   0.47774   0.04482
C          C       0.52226   0.59122   0.04482
C          C       0.44400   0.96387   0.00494
C          C       0.03613   0.48013   0.00494
C          C       0.51987   0.55600   0.00494
C          C       0.44342   0.99587   0.43383
C          C       0.00413   0.44755   0.43383
C          C       0.55245   0.55658   0.43383
C          C       0.40971   0.99562   0.40397
C          C       0.00438   0.41409   0.40397
C          C       0.58591   0.59029   0.40397
N          N       0.12978   0.78635   0.02299
N          N       0.21365   0.34343   0.02299
N          N       0.65657   0.87022   0.02299
N          N       0.47938   0.96583   0.03263
N          N       0.03417   0.51355   0.03263
N          N       0.48645   0.52062   0.03263
C          C       0.48581   0.94000   0.10137
C          C       0.06000   0.54581   0.10137
C          C       0.45419   0.51419   0.10137
H          H       0.86621   0.63347   0.28921
H          H       0.36653   0.23274   0.28921
H          H       0.76726   0.13379   0.28921
H          H       0.92998   0.64280   0.29449
H          H       0.35720   0.28718   0.29449
H          H       0.71282   0.07002   0.29449
H          H       0.97180   0.75262   0.01972
H          H       0.24738   0.21918   0.01972
H          H       0.78082   0.02820   0.01972
H          H       0.90839   0.74341   0.02465
H          H       0.25659   0.16498   0.02465
H          H       0.83502   0.09161   0.02465
H          H       0.97595   0.64256   0.17471
H          H       0.35744   0.33339   0.17471
H          H       0.66661   0.02405   0.17471
H          H       0.09616   0.71449   0.07242
H          H       0.28551   0.38167   0.07242
H          H       0.61833   0.90384   0.07242
H          H       0.02457   0.76439   0.10731
H          H       0.23561   0.26018   0.10731
H          H       0.73982   0.97543   0.10731
H          H       0.09001   0.80566   0.04166
H          H       0.19434   0.28435   0.04166
H          H       0.71565   0.90999   0.04166
H          H       0.71241   0.64201   0.40492
H          H       0.35799   0.07040   0.40492
H          H       0.92960   0.28759   0.40492
H          H       0.77298   0.64582   0.47262
H          H       0.35418   0.12716   0.47262
H          H       0.87284   0.22702   0.47262
H          H       0.81997   0.76278   0.15421
H          H       0.23722   0.05719   0.15421
H          H       0.94281   0.18003   0.15421
H          H       0.75933   0.75969   0.09620
H          H       0.24031   0.99964   0.09620
H          H       0.00036   0.24067   0.09620
H          H       0.81973   0.65187   0.19234
H          H       0.34813   0.16786   0.19234
H          H       0.83214   0.18027   0.19234
H          H       0.50779   0.89166   0.23033
H          H       0.10834   0.61613   0.23033
H          H       0.38387   0.49221   0.23033
H          H       0.57192   0.90098   0.24670
H          H       0.09902   0.67094   0.24670
H          H       0.32906   0.42808   0.24670
H          H       0.61682   0.01426   0.00588
H          H       0.98574   0.60256   0.00588
H          H       0.39744   0.38318   0.00588
H          H       0.55267   0.00453   0.49271
H          H       0.99547   0.54814   0.49271
H          H       0.45186   0.44733   0.49271
H          H       0.24004   0.95915   0.42431
H          H       0.04085   0.28089   0.42431
H          H       0.71911   0.75996   0.42431
H          H       0.30487   0.90162   0.37012
H          H       0.09838   0.40325   0.37012
H          H       0.59675   0.69513   0.37012
H          H       0.36250   0.02238   0.47866
H          H       0.97762   0.34012   0.47866
H          H       0.65988   0.63750   0.47866
H          H       0.19511   0.90946   0.30424
H          H       0.09054   0.28565   0.30424
H          H       0.71435   0.80489   0.30424
H          H       0.13610   0.85072   0.36796
H          H       0.14928   0.28538   0.36796
H          H       0.71462   0.86390   0.36796
H          H       0.19984   0.79902   0.07836
H          H       0.20098   0.40082   0.07836
H          H       0.59918   0.80016   0.07836
H          H       0.25957   0.85778   0.02248
H          H       0.14222   0.40179   0.02248
H          H       0.59821   0.74043   0.02248
H          H       0.34796   0.90414   0.05363
H          H       0.09586   0.44382   0.05363
H          H       0.55618   0.65204   0.05363
H          H       0.40785   0.90543   0.10164
H          H       0.09457   0.50242   0.10164
H          H       0.49758   0.59215   0.10164
H          H       0.47052   0.02176   0.39985
H          H       0.97824   0.44876   0.39985
H          H       0.55124   0.52948   0.39985
H          H       0.41066   0.02119   0.34595
H          H       0.97881   0.38947   0.34595
H          H       0.61053   0.58934   0.34595
H          H       0.46312   0.91222   0.15245
H          H       0.08778   0.55090   0.15245
H          H       0.44910   0.53688   0.15245
C          C       0.88165   0.68753   0.65658
C          C       0.31247   0.19412   0.65658
C          C       0.80588   0.11835   0.65658
C          C       0.88941   0.65992   0.72975
C          C       0.34008   0.22949   0.72975
C          C       0.77051   0.11059   0.72975
C          C       0.92574   0.66518   0.73250
C          C       0.33482   0.26056   0.73250
C          C       0.73944   0.07426   0.73250
C          C       0.95738   0.69862   0.65715
C          C       0.30138   0.25876   0.65715
C          C       0.74124   0.04262   0.65715
C          C       0.94926   0.72667   0.58557
C          C       0.27333   0.22259   0.58557
C          C       0.77741   0.05074   0.58557
C          C       0.91283   0.72109   0.58612
C          C       0.27891   0.19174   0.58612
C          C       0.80826   0.08717   0.58612
C          C       0.99506   0.70295   0.64427
C          C       0.29705   0.29211   0.64427
C          C       0.70789   0.00494   0.64427
C          C       0.03668   0.67464   0.62862
C          C       0.32536   0.36204   0.62862
C          C       0.63796   0.96332   0.62862
C          C       0.00054   0.67124   0.65285
C          C       0.32876   0.32930   0.65285
C          C       0.67070   0.99946   0.65285
C          C       0.06809   0.71183   0.59612
C          C       0.28817   0.35626   0.59612
C          C       0.64374   0.93191   0.59612
C          C       0.06421   0.74408   0.58605
C          C       0.25592   0.32013   0.58605
C          C       0.67987   0.93579   0.58605
C          C       0.02798   0.73912   0.61299
C          C       0.26088   0.28886   0.61299
C          C       0.71114   0.97202   0.61299
C          C       0.09604   0.78195   0.54812
C          C       0.21805   0.31409   0.54812
C          C       0.68591   0.90396   0.54812
C          C       0.72996   0.70052   0.99369
C          C       0.29948   0.02944   0.99369
C          C       0.97056   0.27004   0.99369
C          C       0.73543   0.66857   0.96447
C          C       0.33143   0.06686   0.96447
C          C       0.93314   0.26457   0.96447
C          C       0.76985   0.67082   0.50136
C          C       0.32918   0.09903   0.50136
C          C       0.90097   0.23015   0.50136
C          C       0.80105   0.70458   0.56941
C          C       0.29542   0.09647   0.56941
C          C       0.90353   0.19895   0.56941
C          C       0.79607   0.73611   0.60024
C          C       0.26389   0.05996   0.60024
C          C       0.94004   0.20393   0.60024
C          C       0.76179   0.73435   0.56617
C          C       0.26565   0.02744   0.56617
C          C       0.97256   0.23821   0.56617
N          N       0.83676   0.70781   0.60249
N          N       0.29219   0.12895   0.60249
N          N       0.87105   0.16324   0.60249
C          C       0.84282   0.68062   0.65437
C          C       0.31938   0.16220   0.65437
C          C       0.83780   0.15718   0.65437
C          C       0.52472   0.94720   0.61001
C          C       0.05280   0.57752   0.61001
C          C       0.42248   0.47528   0.61001
C          C       0.53162   0.91878   0.68006
C          C       0.08122   0.61284   0.68006
C          C       0.38716   0.46838   0.68006
C          C       0.56783   0.92384   0.68927
C          C       0.07616   0.64399   0.68927
C          C       0.35601   0.43217   0.68927
C          C       0.60027   0.95848   0.62788
C          C       0.04152   0.64179   0.62788
C          C       0.35821   0.39973   0.62788
C          C       0.59307   0.98745   0.55947
C          C       0.01255   0.60562   0.55947
C          C       0.39438   0.40693   0.55947
C          C       0.55656   0.98158   0.55051
C          C       0.01842   0.57498   0.55051
C          C       0.42502   0.44344   0.55051
C          C       0.26772   0.96030   0.91635
C          C       0.03970   0.30742   0.91635
C          C       0.69258   0.73228   0.91635
C          C       0.26792   0.92572   0.89572
C          C       0.07428   0.34220   0.89572
C          C       0.65780   0.73208   0.89572
C          C       0.30378   0.92804   0.88834
C          C       0.07196   0.37574   0.88834
C          C       0.62426   0.69622   0.88834
C          C       0.33826   0.96230   0.92033
C          C       0.03770   0.37596   0.92033
C          C       0.62404   0.66174   0.92033
C          C       0.33613   0.99581   0.94448
C          C       0.00419   0.34032   0.94448
C          C       0.65968   0.66387   0.94448
C          C       0.30114   0.99555   0.94834
C          C       0.00445   0.30559   0.94834
C          C       0.69441   0.69886   0.94834
C          C       0.23306   0.88936   0.90758
C          C       0.11064   0.34370   0.90758
C          C       0.65630   0.76694   0.90758
C          C       0.37370   0.96252   0.94421
C          C       0.03748   0.41118   0.94421
C          C       0.58882   0.62630   0.94421
C          C       0.19676   0.88541   0.86474
C          C       0.11459   0.31135   0.86474
C          C       0.68865   0.80324   0.86474
C          C       0.16329   0.85219   0.90216
C          C       0.14781   0.31110   0.90216
C          C       0.68890   0.83671   0.90216
C          C       0.16345   0.82045   0.98030
C          C       0.17955   0.34300   0.98030
C          C       0.65700   0.83655   0.98030
C          C       0.19893   0.82337   0.51670
C          C       0.17663   0.37556   0.51670
C          C       0.62444   0.80107   0.51670
C          C       0.23272   0.85637   0.98146
C          C       0.14363   0.37635   0.98146
C          C       0.62365   0.76728   0.98146
C          C       0.37470   0.93004   0.51560
C          C       0.06996   0.44466   0.51560
C          C       0.55534   0.62530   0.51560
C          C       0.40878   0.93104   0.54482
C          C       0.06896   0.47774   0.54482
C          C       0.52226   0.59122   0.54482
C          C       0.44400   0.96387   0.50494
C          C       0.03613   0.48013   0.50494
C          C       0.51987   0.55600   0.50494
C          C       0.44342   0.99587   0.93383
C          C       0.00413   0.44755   0.93383
C          C       0.55245   0.55658   0.93383
C          C       0.40971   0.99562   0.90397
C          C       0.00438   0.41409   0.90397
C          C       0.58591   0.59029   0.90397
N          N       0.12978   0.78635   0.52299
N          N       0.21365   0.34343   0.52299
N          N       0.65657   0.87022   0.52299
N          N       0.47938   0.96583   0.53263
N          N       0.03417   0.51355   0.53263
N          N       0.48645   0.52062   0.53263
C          C       0.48581   0.94000   0.60137
C          C       0.06000   0.54581   0.60137
C          C       0.45419   0.51419   0.60137
H          H       0.86621   0.63347   0.78921
H          H       0.36653   0.23274   0.78921
H          H       0.76726   0.13379   0.78921
H          H       0.92998   0.64280   0.79449
H          H       0.35720   0.28718   0.79449
H          H       0.71282   0.07002   0.79449
H          H       0.97180   0.75262   0.51972
H          H       0.24738   0.21918   0.51972
H          H       0.78082   0.02820   0.51972
H          H       0.90839   0.74341   0.52464
H          H       0.25659   0.16498   0.52464
H          H       0.83502   0.09161   0.52464
H          H       0.97595   0.64256   0.67471
H          H       0.35744   0.33339   0.67471
H          H       0.66661   0.02405   0.67471
H          H       0.09616   0.71449   0.57242
H          H       0.28551   0.38167   0.57242
H          H       0.61833   0.90384   0.57242
H          H       0.02457   0.76439   0.60731
H          H       0.23561   0.26018   0.60731
H          H       0.73982   0.97543   0.60731
H          H       0.09001   0.80566   0.54166
H          H       0.19434   0.28435   0.54166
H          H       0.71565   0.90999   0.54166
H          H       0.71241   0.64201   0.90492
H          H       0.35799   0.07040   0.90492
H          H       0.92960   0.28759   0.90492
H          H       0.77298   0.64582   0.97262
H          H       0.35418   0.12716   0.97262
H          H       0.87284   0.22702   0.97262
H          H       0.81997   0.76278   0.65421
H          H       0.23722   0.05719   0.65421
H          H       0.94281   0.18003   0.65421
H          H       0.75933   0.75969   0.59619
H          H       0.24031   0.99964   0.59619
H          H       0.00036   0.24067   0.59619
H          H       0.81973   0.65187   0.69234
H          H       0.34813   0.16786   0.69234
H          H       0.83214   0.18027   0.69234
H          H       0.50779   0.89166   0.73033
H          H       0.10834   0.61613   0.73033
H          H       0.38387   0.49221   0.73033
H          H       0.57192   0.90098   0.74670
H          H       0.09902   0.67094   0.74670
H          H       0.32906   0.42808   0.74670
H          H       0.61682   0.01426   0.50588
H          H       0.98574   0.60256   0.50588
H          H       0.39744   0.38318   0.50588
H          H       0.55267   0.00453   0.99271
H          H       0.99547   0.54814   0.99271
H          H       0.45186   0.44733   0.99271
H          H       0.24004   0.95915   0.92431
H          H       0.04085   0.28089   0.92431
H          H       0.71911   0.75996   0.92431
H          H       0.30487   0.90162   0.87012
H          H       0.09838   0.40325   0.87012
H          H       0.59675   0.69513   0.87012
H          H       0.36250   0.02238   0.97866
H          H       0.97762   0.34012   0.97866
H          H       0.65988   0.63750   0.97866
H          H       0.19511   0.90946   0.80424
H          H       0.09054   0.28565   0.80424
H          H       0.71435   0.80489   0.80424
H          H       0.13610   0.85072   0.86796
H          H       0.14928   0.28538   0.86796
H          H       0.71462   0.86390   0.86796
H          H       0.19984   0.79902   0.57836
H          H       0.20098   0.40082   0.57836
H          H       0.59918   0.80016   0.57836
H          H       0.25957   0.85778   0.52247
H          H       0.14222   0.40179   0.52247
H          H       0.59821   0.74043   0.52247
H          H       0.34796   0.90414   0.55363
H          H       0.09586   0.44382   0.55363
H          H       0.55618   0.65204   0.55363
H          H       0.40785   0.90543   0.60164
H          H       0.09457   0.50242   0.60164
H          H       0.49758   0.59215   0.60164
H          H       0.47052   0.02176   0.89985
H          H       0.97824   0.44876   0.89985
H          H       0.55124   0.52948   0.89985
H          H       0.41066   0.02119   0.84595
H          H       0.97881   0.38947   0.84595
H          H       0.61053   0.58934   0.84595
H          H       0.46312   0.91222   0.65245
H          H       0.08778   0.55090   0.65245
H          H       0.44910   0.53688   0.65245
