data_crystal

_cell_length_a    25.44400
_cell_length_b    25.44400
_cell_length_c    7.54600
_cell_angle_alpha 90.00000
_cell_angle_beta  90.00000
_cell_angle_gamma 120.00000

_space_group_name_Hall 'P 1'
_space_group_name_H-M_alt  'P 1'

loop_
_symmetry_equiv_pos_as_xyz
'x,y,z'

loop_
_atom_site_label
_atom_site_type_symbol
_atom_site_fract_x
_atom_site_fract_y
_atom_site_fract_z
C          C       0.94496   0.94344   0.20924
C          C       0.05656   0.00152   0.20924
C          C       0.99848   0.05504   0.20924
C          C       0.37981   0.72710   0.37602
C          C       0.27290   0.65271   0.37602
C          C       0.34729   0.62019   0.37602
C          C       0.00148   0.94595   0.21224
C          C       0.05405   0.05553   0.21224
C          C       0.94447   0.99852   0.21224
F          F       0.71786   0.81842   0.26982
F          F       0.18158   0.89944   0.26982
F          F       0.10056   0.28214   0.26982
C          C       0.88678   0.88405   0.18759
C          C       0.11595   0.00273   0.18759
C          C       0.99727   0.11322   0.18759
C          C       0.54961   0.61380   0.08394
C          C       0.38620   0.93581   0.08394
C          C       0.06419   0.45039   0.08394
C          C       0.83081   0.87839   0.24831
C          C       0.12161   0.95242   0.24831
C          C       0.04758   0.16919   0.24831
C          C       0.51693   0.55362   0.00921
C          C       0.44638   0.96331   0.00921
C          C       0.03669   0.48307   0.00921
C          C       0.77437   0.82370   0.21232
C          C       0.17630   0.95067   0.21232
C          C       0.04933   0.22563   0.21232
C          C       0.54953   0.52820   0.42224
C          C       0.47180   0.02133   0.42224
C          C       0.97867   0.45047   0.42224
C          C       0.77423   0.77447   0.11943
C          C       0.22553   0.99976   0.11943
C          C       0.00024   0.22577   0.11943
C          C       0.61481   0.56296   0.40999
C          C       0.43704   0.05185   0.40999
C          C       0.94815   0.38519   0.40999
C          C       0.83075   0.77975   0.06193
C          C       0.22025   0.05100   0.06193
C          C       0.94900   0.16925   0.06193
H          H       0.00264   0.90429   0.21231
H          H       0.09571   0.09835   0.21231
H          H       0.90165   0.99736   0.21231
C          C       0.88718   0.83444   0.09792
C          C       0.16556   0.05274   0.09792
C          C       0.94726   0.11282   0.09792
H          H       0.82939   0.91383   0.32335
H          H       0.08617   0.91556   0.32335
H          H       0.08444   0.17061   0.32335
C          C       0.71780   0.71978   0.08344
C          C       0.28022   0.99802   0.08344
C          C       0.00198   0.28220   0.08344
H          H       0.83071   0.74065   0.48806
H          H       0.25935   0.09006   0.48806
H          H       0.90994   0.16929   0.48806
C          C       0.65823   0.70798   0.13226
C          C       0.29202   0.95025   0.13226
C          C       0.04975   0.34177   0.13226
H          H       0.93187   0.83866   0.05253
H          H       0.16134   0.09321   0.05253
H          H       0.90679   0.06813   0.05253
N          N       0.61450   0.64818   0.07144
N          N       0.35182   0.96632   0.07144
N          N       0.03368   0.38550   0.07144
H          H       0.68228   0.79453   0.26714
H          H       0.20547   0.88775   0.26714
H          H       0.11225   0.31772   0.26714
C          C       0.64710   0.62276   0.48447
C          C       0.37724   0.02434   0.48447
C          C       0.97566   0.35290   0.48447
H          H       0.60767   0.81907   0.40262
H          H       0.18093   0.78860   0.40262
H          H       0.21140   0.39233   0.40262
N          N       0.71098   0.66685   0.49153
N          N       0.33315   0.04413   0.49153
N          N       0.95587   0.28902   0.49153
H          H       0.49991   0.78453   0.47605
H          H       0.21547   0.71538   0.47605
H          H       0.28462   0.50009   0.47605
N          N       0.64485   0.74925   0.22625
N          N       0.25075   0.89560   0.22625
N          N       0.10440   0.35515   0.22625
H          H       0.43386   0.60839   0.21193
H          H       0.39161   0.82547   0.21193
H          H       0.17453   0.56614   0.21193
C          C       0.58261   0.73130   0.26664
C          C       0.26870   0.85131   0.26664
C          C       0.14869   0.41739   0.26664
H          H       0.41562   0.77368   0.37600
H          H       0.22632   0.64194   0.37600
H          H       0.35806   0.58438   0.37600
C          C       0.56923   0.77257   0.36063
C          C       0.22743   0.79666   0.36063
C          C       0.20334   0.43077   0.36063
H          H       0.52523   0.48321   0.36516
H          H       0.51679   0.04202   0.36516
H          H       0.95798   0.47477   0.36516
C          C       0.50843   0.75366   0.39961
C          C       0.24634   0.75477   0.39961
C          C       0.24523   0.49157   0.39961
H          H       0.54545   0.64044   0.13926
H          H       0.35956   0.90501   0.13926
H          H       0.09499   0.45455   0.13926
C          C       0.45961   0.69615   0.34498
C          C       0.30385   0.76346   0.34498
C          C       0.23654   0.54039   0.34498
H          H       0.52391   0.63403   0.15286
H          H       0.36597   0.88988   0.15286
H          H       0.11012   0.47609   0.15286
C          C       0.47230   0.65489   0.25391
C          C       0.34511   0.81741   0.25391
C          C       0.18259   0.52770   0.25391
H          H       0.46533   0.52622   0.01904
H          H       0.47378   0.93911   0.01904
H          H       0.06089   0.53467   0.01904
C          C       0.53454   0.67284   0.21353
C          C       0.32716   0.86170   0.21353
C          C       0.13830   0.46546   0.21353
H          H       0.64067   0.54288   0.34116
H          H       0.45712   0.09779   0.34116
H          H       0.90221   0.35933   0.34116
C          C       0.39488   0.68088   0.37220
C          C       0.31912   0.71400   0.37220
C          C       0.28600   0.60512   0.37220
C          C       0.94496   0.94344   0.70924
C          C       0.05656   0.00152   0.70924
C          C       0.99848   0.05504   0.70924
C          C       0.37981   0.72710   0.87602
C          C       0.27290   0.65271   0.87602
C          C       0.34729   0.62019   0.87602
C          C       0.00148   0.94595   0.71224
C          C       0.05405   0.05553   0.71224
C          C       0.94447   0.99852   0.71224
F          F       0.71786   0.81842   0.76982
F          F       0.18158   0.89944   0.76982
F          F       0.10056   0.28214   0.76982
C          C       0.88678   0.88405   0.68759
C          C       0.11595   0.00273   0.68759
C          C       0.99727   0.11322   0.68759
C          C       0.54961   0.61380   0.58394
C          C       0.38620   0.93581   0.58394
C          C       0.06419   0.45039   0.58394
C          C       0.83081   0.87839   0.74831
C          C       0.12161   0.95242   0.74831
C          C       0.04758   0.16919   0.74831
C          C       0.51693   0.55362   0.50921
C          C       0.44638   0.96331   0.50921
C          C       0.03669   0.48307   0.50921
C          C       0.77437   0.82370   0.71232
C          C       0.17630   0.95067   0.71232
C          C       0.04933   0.22563   0.71232
C          C       0.54953   0.52820   0.92224
C          C       0.47180   0.02133   0.92224
C          C       0.97867   0.45047   0.92224
C          C       0.77423   0.77447   0.61943
C          C       0.22553   0.99976   0.61943
C          C       0.00024   0.22577   0.61943
C          C       0.61481   0.56296   0.90999
C          C       0.43704   0.05185   0.90999
C          C       0.94815   0.38519   0.90999
C          C       0.83075   0.77975   0.56193
C          C       0.22025   0.05100   0.56193
C          C       0.94900   0.16925   0.56193
H          H       0.00264   0.90429   0.71231
H          H       0.09571   0.09835   0.71231
H          H       0.90165   0.99736   0.71231
C          C       0.88718   0.83444   0.59792
C          C       0.16556   0.05274   0.59792
C          C       0.94726   0.11282   0.59792
H          H       0.82939   0.91383   0.82335
H          H       0.08617   0.91556   0.82335
H          H       0.08444   0.17061   0.82335
C          C       0.71780   0.71978   0.58344
C          C       0.28022   0.99802   0.58344
C          C       0.00198   0.28220   0.58344
H          H       0.83071   0.74065   0.98806
H          H       0.25935   0.09006   0.98806
H          H       0.90994   0.16929   0.98806
C          C       0.65823   0.70798   0.63226
C          C       0.29202   0.95025   0.63226
C          C       0.04975   0.34177   0.63226
H          H       0.93187   0.83866   0.55253
H          H       0.16134   0.09321   0.55253
H          H       0.90679   0.06813   0.55253
N          N       0.61450   0.64818   0.57144
N          N       0.35182   0.96632   0.57144
N          N       0.03368   0.38550   0.57144
H          H       0.68228   0.79453   0.76714
H          H       0.20547   0.88775   0.76714
H          H       0.11225   0.31772   0.76714
C          C       0.64710   0.62276   0.98447
C          C       0.37724   0.02434   0.98447
C          C       0.97566   0.35290   0.98447
H          H       0.60767   0.81907   0.90262
H          H       0.18093   0.78860   0.90262
H          H       0.21140   0.39233   0.90262
N          N       0.71098   0.66685   0.99153
N          N       0.33315   0.04413   0.99153
N          N       0.95587   0.28902   0.99153
H          H       0.49991   0.78453   0.97605
H          H       0.21547   0.71538   0.97605
H          H       0.28462   0.50009   0.97605
N          N       0.64485   0.74925   0.72625
N          N       0.25075   0.89560   0.72625
N          N       0.10440   0.35515   0.72625
H          H       0.43386   0.60839   0.71192
H          H       0.39161   0.82547   0.71192
H          H       0.17453   0.56614   0.71192
C          C       0.58261   0.73130   0.76664
C          C       0.26870   0.85131   0.76664
C          C       0.14869   0.41739   0.76664
H          H       0.41562   0.77368   0.87600
H          H       0.22632   0.64194   0.87600
H          H       0.35806   0.58438   0.87600
C          C       0.56923   0.77257   0.86063
C          C       0.22743   0.79666   0.86063
C          C       0.20334   0.43077   0.86063
H          H       0.52523   0.48321   0.86516
H          H       0.51679   0.04202   0.86516
H          H       0.95798   0.47477   0.86516
C          C       0.50843   0.75366   0.89961
C          C       0.24634   0.75477   0.89961
C          C       0.24523   0.49157   0.89961
H          H       0.54545   0.64044   0.63926
H          H       0.35956   0.90501   0.63926
H          H       0.09499   0.45455   0.63926
C          C       0.45961   0.69615   0.84498
C          C       0.30385   0.76346   0.84498
C          C       0.23654   0.54039   0.84498
H          H       0.52391   0.63403   0.65286
H          H       0.36597   0.88988   0.65286
H          H       0.11012   0.47609   0.65286
C          C       0.47230   0.65489   0.75391
C          C       0.34511   0.81741   0.75391
C          C       0.18259   0.52770   0.75391
H          H       0.46533   0.52622   0.51904
H          H       0.47378   0.93911   0.51904
H          H       0.06089   0.53467   0.51904
C          C       0.53454   0.67284   0.71353
C          C       0.32716   0.86170   0.71353
C          C       0.13830   0.46546   0.71353
H          H       0.64067   0.54288   0.84116
H          H       0.45712   0.09779   0.84116
H          H       0.90221   0.35933   0.84116
C          C       0.39488   0.68088   0.87220
C          C       0.31912   0.71400   0.87220
C          C       0.28600   0.60512   0.87220
