data_crystal

_cell_length_a    25.52000
_cell_length_b    25.52000
_cell_length_c    3.86900
_cell_angle_alpha 90.00000
_cell_angle_beta  90.00000
_cell_angle_gamma 120.00000

_space_group_name_Hall 'P 1'
_space_group_name_H-M_alt  'P 1'

loop_
_symmetry_equiv_pos_as_xyz
'x,y,z'

loop_
_atom_site_label
_atom_site_type_symbol
_atom_site_fract_x
_atom_site_fract_y
_atom_site_fract_z
C          C       0.94525   0.94351   0.48794
C          C       0.05649   0.00174   0.48794
C          C       0.99826   0.05475   0.48794
C          C       0.55351   0.62014   0.08232
C          C       0.37986   0.93337   0.08232
C          C       0.06663   0.44649   0.08232
C          C       0.00170   0.94623   0.49620
C          C       0.05377   0.05547   0.49620
C          C       0.94453   0.99830   0.49620
C          C       0.52220   0.56192   0.91443
C          C       0.43808   0.96028   0.91443
C          C       0.03972   0.47780   0.91443
C          C       0.88767   0.88454   0.42803
C          C       0.11546   0.00313   0.42803
C          C       0.99687   0.11233   0.42803
C          C       0.55613   0.53802   0.74620
C          C       0.46198   0.01811   0.74620
C          C       0.98189   0.44387   0.74620
C          C       0.83088   0.87817   0.53210
C          C       0.12183   0.95271   0.53210
C          C       0.04729   0.16912   0.53210
C          C       0.62137   0.57234   0.74586
C          C       0.42766   0.04903   0.74586
C          C       0.95097   0.37863   0.74586
C          C       0.77526   0.82487   0.43560
C          C       0.17513   0.95039   0.43560
C          C       0.04961   0.22474   0.43560
H          H       0.00297   0.90475   0.49555
H          H       0.09525   0.09822   0.49555
H          H       0.90178   0.99703   0.49555
C          C       0.77667   0.77763   0.24248
C          C       0.22237   0.99904   0.24248
C          C       0.00096   0.22333   0.24248
H          H       0.82819   0.91202   0.68668
H          H       0.08798   0.91617   0.68668
H          H       0.08383   0.17181   0.68668
C          C       0.83393   0.78354   0.14470
C          C       0.21646   0.05039   0.14470
C          C       0.94961   0.16607   0.14470
H          H       0.83513   0.74603   0.99115
H          H       0.25397   0.08910   0.99115
H          H       0.91090   0.16487   0.99115
C          C       0.88955   0.83685   0.24120
C          C       0.16315   0.05270   0.24120
C          C       0.94730   0.11045   0.24120
H          H       0.93482   0.84156   0.16406
H          H       0.15844   0.09326   0.16406
H          H       0.90674   0.06518   0.16406
C          C       0.72106   0.72433   0.14597
C          C       0.27567   0.99673   0.14597
C          C       0.00327   0.27894   0.14597
H          H       0.68260   0.79550   0.51411
H          H       0.20450   0.88710   0.51411
H          H       0.11290   0.31740   0.51411
C          C       0.66090   0.71211   0.22453
C          C       0.28789   0.94879   0.22453
C          C       0.05121   0.33910   0.22453
H          H       0.60602   0.81794   0.76701
H          H       0.18206   0.78808   0.76701
H          H       0.21192   0.39398   0.76701
N          N       0.61836   0.65410   0.08131
N          N       0.34590   0.96426   0.08131
N          N       0.03574   0.38164   0.08131
H          H       0.49739   0.78298   0.87684
H          H       0.21702   0.71441   0.87684
H          H       0.28559   0.50261   0.87684
C          C       0.65229   0.63020   0.91308
C          C       0.36980   0.02209   0.91308
C          C       0.97791   0.34771   0.91308
H          H       0.43606   0.61323   0.30381
H          H       0.38677   0.82283   0.30381
H          H       0.17717   0.56394   0.30381
N          N       0.71580   0.67344   0.95232
N          N       0.32656   0.04236   0.95232
N          N       0.95764   0.28420   0.95232
H          H       0.41449   0.77398   0.63917
H          H       0.22602   0.64051   0.63917
H          H       0.35949   0.58551   0.63917
N          N       0.64600   0.75151   0.41474
N          N       0.24849   0.89449   0.41474
N          N       0.10551   0.35400   0.41474
H          H       0.53288   0.49452   0.61837
H          H       0.50548   0.03836   0.61837
H          H       0.96164   0.46712   0.61837
C          C       0.58333   0.73336   0.47474
C          C       0.26664   0.84997   0.47474
C          C       0.15003   0.41667   0.47474
H          H       0.54844   0.64564   0.19570
H          H       0.35436   0.90280   0.19570
H          H       0.09720   0.45156   0.19570
C          C       0.56843   0.77276   0.66495
C          C       0.22724   0.79567   0.66495
C          C       0.20433   0.43157   0.66495
H          H       0.52675   0.63917   0.21570
H          H       0.36083   0.88758   0.21570
H          H       0.11242   0.47325   0.21570
C          C       0.50720   0.75365   0.72231
C          C       0.24635   0.75355   0.72231
C          C       0.24645   0.49280   0.72231
H          H       0.47064   0.53487   0.91502
H          H       0.46513   0.93577   0.91502
H          H       0.06423   0.52936   0.91502
C          C       0.45950   0.69785   0.59055
C          C       0.30215   0.76165   0.59055
C          C       0.23835   0.54050   0.59055
O          O       0.64827   0.55347   0.61275
O          O       0.44653   0.09480   0.61275
O          O       0.90520   0.35173   0.61275
C          C       0.47365   0.65841   0.40587
C          C       0.34159   0.81524   0.40587
C          C       0.18476   0.52635   0.40587
C          C       0.43974   0.47438   0.05233
C          C       0.52562   0.96536   0.05233
C          C       0.03464   0.56026   0.05233
C          C       0.53633   0.67656   0.34587
C          C       0.32344   0.85977   0.34587
C          C       0.14023   0.46367   0.34587
H          H       0.47006   0.45872   0.15896
H          H       0.54128   0.01134   0.15896
H          H       0.98866   0.52994   0.15896
C          C       0.39482   0.68172   0.63481
C          C       0.31828   0.71310   0.63481
C          C       0.28690   0.60518   0.63481
H          H       0.41180   0.44241   0.84609
H          H       0.55759   0.96939   0.84609
H          H       0.03061   0.58820   0.84609
C          C       0.37910   0.72722   0.64076
C          C       0.27278   0.65188   0.64076
C          C       0.34812   0.62090   0.64076
H          H       0.40881   0.47210   0.26049
H          H       0.52790   0.93671   0.26049
H          H       0.06329   0.59119   0.26049
F          F       0.71800   0.81896   0.53338
F          F       0.18104   0.89904   0.53338
F          F       0.10096   0.28200   0.53338
