data_crystal

_cell_length_a    25.51100
_cell_length_b    25.51100
_cell_length_c    7.65800
_cell_angle_alpha 90.00000
_cell_angle_beta  90.00000
_cell_angle_gamma 120.00000

_space_group_name_Hall 'P 1'
_space_group_name_H-M_alt  'P 1'

loop_
_symmetry_equiv_pos_as_xyz
'x,y,z'

loop_
_atom_site_label
_atom_site_type_symbol
_atom_site_fract_x
_atom_site_fract_y
_atom_site_fract_z
C          C       0.94522   0.94328   0.22604
C          C       0.05672   0.00194   0.22604
C          C       0.99806   0.05478   0.22604
F          F       0.71803   0.81857   0.26815
F          F       0.18143   0.89946   0.26815
F          F       0.10054   0.28197   0.26815
C          C       0.00189   0.94634   0.22936
C          C       0.05366   0.05555   0.22936
C          C       0.94445   0.99811   0.22936
C          C       0.55209   0.61362   0.08400
C          C       0.38638   0.93847   0.08400
C          C       0.06153   0.44791   0.08400
C          C       0.88725   0.88363   0.20377
C          C       0.11637   0.00362   0.20377
C          C       0.99638   0.11275   0.20377
C          C       0.52022   0.55325   0.01247
C          C       0.44675   0.96697   0.01247
C          C       0.03303   0.47978   0.01247
C          C       0.83086   0.87827   0.25628
C          C       0.12173   0.95259   0.25628
C          C       0.04741   0.16914   0.25628
C          C       0.55357   0.52749   0.43425
C          C       0.47251   0.02608   0.43425
C          C       0.97392   0.44643   0.43425
C          C       0.77494   0.82356   0.21893
C          C       0.17644   0.95138   0.21893
C          C       0.04862   0.22506   0.21893
C          C       0.61878   0.56210   0.42756
C          C       0.43790   0.05668   0.42756
C          C       0.94332   0.38122   0.42756
C          C       0.77570   0.77402   0.13289
C          C       0.22598   0.00168   0.13289
C          C       0.99832   0.22430   0.13289
H          H       0.00332   0.90505   0.23047
H          H       0.09495   0.09827   0.23047
H          H       0.90173   0.99668   0.23047
C          C       0.83261   0.77902   0.08367
C          C       0.22098   0.05359   0.08367
C          C       0.94641   0.16739   0.08367
H          H       0.82872   0.91397   0.32604
H          H       0.08603   0.91475   0.32604
H          H       0.08525   0.17128   0.32604
C          C       0.88852   0.83372   0.12102
C          C       0.16628   0.05480   0.12102
C          C       0.94520   0.11148   0.12102
H          H       0.83329   0.73967   0.01525
H          H       0.26033   0.09362   0.01525
H          H       0.90638   0.16671   0.01525
C          C       0.71979   0.71931   0.09554
C          C       0.28069   0.00048   0.09554
C          C       0.99952   0.28021   0.09554
H          H       0.93352   0.83772   0.08218
H          H       0.16228   0.09580   0.08218
H          H       0.90420   0.06648   0.08218
C          C       0.65992   0.70777   0.13650
C          C       0.29223   0.95215   0.13650
C          C       0.04785   0.34008   0.13650
H          H       0.68259   0.79472   0.26312
H          H       0.20528   0.88787   0.26312
H          H       0.11213   0.31741   0.26312
N          N       0.61691   0.64785   0.07706
N          N       0.35215   0.96906   0.07706
N          N       0.03094   0.38309   0.07706
H          H       0.60688   0.81984   0.38327
H          H       0.18016   0.78704   0.38327
H          H       0.21296   0.39312   0.38327
C          C       0.65026   0.62209   0.49884
C          C       0.37791   0.02817   0.49884
C          C       0.97183   0.34974   0.49884
H          H       0.49872   0.78574   0.44418
H          H       0.21426   0.71298   0.44418
H          H       0.28702   0.50128   0.44418
N          N       0.71388   0.66609   0.00993
N          N       0.33391   0.04779   0.00993
N          N       0.95221   0.28612   0.00993
H          H       0.43544   0.60883   0.19428
H          H       0.39117   0.82661   0.19428
H          H       0.17339   0.56456   0.19428
N          N       0.64566   0.74938   0.22259
N          N       0.25062   0.89628   0.22259
N          N       0.10372   0.35434   0.22259
H          H       0.41486   0.77353   0.34671
H          H       0.22647   0.64133   0.34671
H          H       0.35867   0.58514   0.34671
C          C       0.58322   0.73167   0.25555
C          C       0.26833   0.85155   0.25555
C          C       0.14845   0.41678   0.25555
C          C       0.52990   0.48235   0.37960
C          C       0.51765   0.04755   0.37960
C          C       0.95245   0.47010   0.37960
C          C       0.56896   0.77327   0.34164
C          C       0.22673   0.79569   0.34164
C          C       0.20431   0.43104   0.34164
H          H       0.54740   0.64045   0.13494
H          H       0.35955   0.90695   0.13494
H          H       0.09305   0.45260   0.13494
C          C       0.50797   0.75459   0.37354
C          C       0.24541   0.75338   0.37354
C          C       0.24662   0.49203   0.37354
H          H       0.52579   0.63412   0.14600
H          H       0.36588   0.89167   0.14600
H          H       0.10833   0.47421   0.14600
C          C       0.45982   0.69698   0.31922
C          C       0.30302   0.76284   0.31922
C          C       0.23716   0.54018   0.31922
Br         Br      0.46869   0.52598   0.01789
Br         Br      0.47402   0.94271   0.01789
Br         Br      0.05729   0.53131   0.01789
C          C       0.47336   0.65540   0.23591
C          C       0.34460   0.81796   0.23591
C          C       0.18204   0.52664   0.23591
H          H       0.64523   0.54175   0.36567
H          H       0.45825   0.10348   0.36567
H          H       0.89652   0.35477   0.36567
C          C       0.53580   0.67311   0.20294
C          C       0.32689   0.86269   0.20294
C          C       0.13731   0.46420   0.20294
H          H       0.50922   0.44741   0.48451
H          H       0.55259   0.06181   0.48451
H          H       0.93819   0.49078   0.48451
C          C       0.39489   0.68129   0.34222
C          C       0.31871   0.71360   0.34222
C          C       0.28640   0.60511   0.34222
H          H       0.55734   0.46627   0.30713
H          H       0.53373   0.09107   0.30713
H          H       0.90893   0.44266   0.30713
C          C       0.37938   0.72704   0.34570
C          C       0.27296   0.65234   0.34570
C          C       0.34766   0.62062   0.34570
H          H       0.49516   0.47330   0.27914
H          H       0.52670   0.02186   0.27914
H          H       0.97814   0.50484   0.27914
C          C       0.94522   0.94328   0.72604
C          C       0.05672   0.00194   0.72604
C          C       0.99806   0.05478   0.72604
F          F       0.71803   0.81857   0.76815
F          F       0.18143   0.89946   0.76815
F          F       0.10054   0.28197   0.76815
C          C       0.00189   0.94634   0.72936
C          C       0.05366   0.05555   0.72936
C          C       0.94445   0.99811   0.72936
C          C       0.55209   0.61362   0.58400
C          C       0.38638   0.93847   0.58400
C          C       0.06153   0.44791   0.58400
C          C       0.88725   0.88363   0.70376
C          C       0.11637   0.00362   0.70376
C          C       0.99638   0.11275   0.70376
C          C       0.52022   0.55325   0.51247
C          C       0.44675   0.96697   0.51247
C          C       0.03303   0.47978   0.51247
C          C       0.83086   0.87827   0.75628
C          C       0.12173   0.95259   0.75628
C          C       0.04741   0.16914   0.75628
C          C       0.55357   0.52749   0.93424
C          C       0.47251   0.02608   0.93424
C          C       0.97392   0.44643   0.93424
C          C       0.77494   0.82356   0.71893
C          C       0.17644   0.95138   0.71893
C          C       0.04862   0.22506   0.71893
C          C       0.61878   0.56210   0.92756
C          C       0.43790   0.05668   0.92756
C          C       0.94332   0.38122   0.92756
C          C       0.77570   0.77402   0.63289
C          C       0.22598   0.00168   0.63289
C          C       0.99832   0.22430   0.63289
H          H       0.00332   0.90505   0.73047
H          H       0.09495   0.09827   0.73047
H          H       0.90173   0.99668   0.73047
C          C       0.83261   0.77902   0.58367
C          C       0.22098   0.05359   0.58367
C          C       0.94641   0.16739   0.58367
H          H       0.82872   0.91397   0.82605
H          H       0.08603   0.91475   0.82605
H          H       0.08525   0.17128   0.82605
C          C       0.88852   0.83372   0.62102
C          C       0.16628   0.05480   0.62102
C          C       0.94520   0.11148   0.62102
H          H       0.83329   0.73967   0.51526
H          H       0.26033   0.09362   0.51526
H          H       0.90638   0.16671   0.51526
C          C       0.71979   0.71931   0.59554
C          C       0.28069   0.00048   0.59554
C          C       0.99952   0.28021   0.59554
H          H       0.93352   0.83772   0.58218
H          H       0.16228   0.09580   0.58218
H          H       0.90420   0.06648   0.58218
C          C       0.65992   0.70777   0.63650
C          C       0.29223   0.95215   0.63650
C          C       0.04785   0.34008   0.63650
H          H       0.68259   0.79472   0.76313
H          H       0.20528   0.88787   0.76313
H          H       0.11213   0.31741   0.76313
N          N       0.61691   0.64785   0.57706
N          N       0.35215   0.96906   0.57706
N          N       0.03094   0.38309   0.57706
H          H       0.60688   0.81984   0.88327
H          H       0.18016   0.78704   0.88327
H          H       0.21296   0.39312   0.88327
C          C       0.65026   0.62209   0.99884
C          C       0.37791   0.02817   0.99884
C          C       0.97183   0.34974   0.99884
H          H       0.49872   0.78574   0.94417
H          H       0.21426   0.71298   0.94417
H          H       0.28702   0.50128   0.94417
N          N       0.71388   0.66609   0.50993
N          N       0.33391   0.04779   0.50993
N          N       0.95221   0.28612   0.50993
H          H       0.43544   0.60883   0.69428
H          H       0.39117   0.82661   0.69428
H          H       0.17339   0.56456   0.69428
N          N       0.64566   0.74938   0.72260
N          N       0.25062   0.89628   0.72260
N          N       0.10372   0.35434   0.72260
H          H       0.41486   0.77353   0.84671
H          H       0.22647   0.64133   0.84671
H          H       0.35867   0.58514   0.84671
C          C       0.58322   0.73167   0.75556
C          C       0.26833   0.85155   0.75556
C          C       0.14845   0.41678   0.75556
C          C       0.52990   0.48235   0.87960
C          C       0.51765   0.04755   0.87960
C          C       0.95245   0.47010   0.87960
C          C       0.56896   0.77327   0.84165
C          C       0.22673   0.79569   0.84165
C          C       0.20431   0.43104   0.84165
H          H       0.54740   0.64045   0.63494
H          H       0.35955   0.90695   0.63494
H          H       0.09305   0.45260   0.63494
C          C       0.50797   0.75459   0.87354
C          C       0.24541   0.75338   0.87354
C          C       0.24662   0.49203   0.87354
H          H       0.52579   0.63412   0.64601
H          H       0.36588   0.89167   0.64601
H          H       0.10833   0.47421   0.64601
C          C       0.45982   0.69698   0.81922
C          C       0.30302   0.76284   0.81922
C          C       0.23716   0.54018   0.81922
Br         Br      0.46869   0.52598   0.51789
Br         Br      0.47402   0.94271   0.51789
Br         Br      0.05729   0.53131   0.51789
C          C       0.47336   0.65540   0.73591
C          C       0.34460   0.81796   0.73591
C          C       0.18204   0.52664   0.73591
H          H       0.64523   0.54175   0.86567
H          H       0.45825   0.10348   0.86567
H          H       0.89652   0.35477   0.86567
C          C       0.53580   0.67311   0.70294
C          C       0.32689   0.86269   0.70294
C          C       0.13731   0.46420   0.70294
H          H       0.50922   0.44741   0.98451
H          H       0.55259   0.06181   0.98451
H          H       0.93819   0.49078   0.98451
C          C       0.39489   0.68129   0.84222
C          C       0.31871   0.71360   0.84222
C          C       0.28640   0.60511   0.84222
H          H       0.55734   0.46627   0.80713
H          H       0.53373   0.09107   0.80713
H          H       0.90893   0.44266   0.80713
C          C       0.37938   0.72704   0.84571
C          C       0.27296   0.65234   0.84571
C          C       0.34766   0.62062   0.84571
H          H       0.49516   0.47330   0.77914
H          H       0.52670   0.02186   0.77914
H          H       0.97814   0.50484   0.77914
