data_crystal

_cell_length_a    25.43800
_cell_length_b    25.43800
_cell_length_c    7.58600
_cell_angle_alpha 90.00000
_cell_angle_beta  90.00000
_cell_angle_gamma 120.00000

_space_group_name_Hall 'P 1'
_space_group_name_H-M_alt  'P 1'

loop_
_symmetry_equiv_pos_as_xyz
 'x,y,z'

loop_
_atom_site_label
_atom_site_type_symbol
_atom_site_fract_x
_atom_site_fract_y
_atom_site_fract_z
C          C       0.94494   0.94343   0.20688
C          C       0.05657   0.00151   0.20688
C          C       0.99849   0.05506   0.20688
C          C       0.37982   0.72711   0.37800
C          C       0.27289   0.65271   0.37800
C          C       0.34729   0.62018   0.37800
C          C       0.00147   0.94593   0.20979
C          C       0.05407   0.05554   0.20979
C          C       0.94446   0.99853   0.20979
F          F       0.71785   0.81843   0.26924
F          F       0.18157   0.89942   0.26924
F          F       0.10058   0.28215   0.26924
C          C       0.88672   0.88402   0.18585
C          C       0.11598   0.00270   0.18585
C          C       0.99730   0.11328   0.18585
C          C       0.54939   0.61351   0.08690
C          C       0.38649   0.93588   0.08690
C          C       0.06412   0.45061   0.08690
C          C       0.83080   0.87841   0.24666
C          C       0.12159   0.95239   0.24666
C          C       0.04761   0.16920   0.24666
C          C       0.51662   0.55322   0.01320
C          C       0.44678   0.96340   0.01320
C          C       0.03660   0.48338   0.01320
C          C       0.77432   0.82366   0.21163
C          C       0.17634   0.95066   0.21163
C          C       0.04934   0.22568   0.21163
C          C       0.54914   0.52771   0.42665
C          C       0.47229   0.02143   0.42665
C          C       0.97857   0.45086   0.42665
C          C       0.77409   0.77431   0.11958
C          C       0.22569   0.99978   0.11958
C          C       0.00022   0.22591   0.11958
C          C       0.61443   0.56248   0.41379
C          C       0.43752   0.05195   0.41379
C          C       0.94805   0.38557   0.41379
C          C       0.83055   0.77954   0.06196
C          C       0.22046   0.05101   0.06196
C          C       0.94899   0.16945   0.06196
H          H       0.00261   0.90425   0.20988
H          H       0.09575   0.09836   0.20988
H          H       0.90164   0.99739   0.20988
C          C       0.88703   0.83430   0.09700
C          C       0.16570   0.05273   0.09700
C          C       0.94727   0.11297   0.09700
H          H       0.82946   0.91395   0.32107
H          H       0.08605   0.91551   0.32107
H          H       0.08449   0.17054   0.32107
C          C       0.71761   0.71956   0.08453
C          C       0.28044   0.99805   0.08453
C          C       0.00195   0.28239   0.08453
H          H       0.83044   0.74035   0.48876
H          H       0.25965   0.09009   0.48876
H          H       0.90991   0.16956   0.48876
C          C       0.65808   0.70779   0.13357
C          C       0.29221   0.95029   0.13357
C          C       0.04971   0.34192   0.13357
H          H       0.93168   0.83848   0.05153
H          H       0.16152   0.09320   0.05153
H          H       0.90680   0.06832   0.05153
N          N       0.61428   0.64790   0.07379
N          N       0.35210   0.96638   0.07379
N          N       0.03362   0.38572   0.07379
H          H       0.68226   0.79451   0.26697
H          H       0.20549   0.88775   0.26697
H          H       0.11225   0.31774   0.26697
C          C       0.64680   0.62239   0.48724
C          C       0.37761   0.02441   0.48724
C          C       0.97559   0.35320   0.48724
H          H       0.60778   0.81920   0.40206
H          H       0.18080   0.78858   0.40206
H          H       0.21142   0.39222   0.40206
N          N       0.71069   0.66651   0.49353
N          N       0.33349   0.04418   0.49353
N          N       0.95582   0.28931   0.49353
H          H       0.50007   0.78470   0.47606
H          H       0.21530   0.71537   0.47606
H          H       0.28463   0.49993   0.47606
N          N       0.64479   0.74917   0.22687
N          N       0.25083   0.89562   0.22687
N          N       0.10438   0.35521   0.22687
H          H       0.43375   0.60821   0.21501
H          H       0.39179   0.82554   0.21501
H          H       0.17446   0.56625   0.21501
C          C       0.58258   0.73125   0.26759
C          C       0.26875   0.85133   0.26759
C          C       0.14867   0.41742   0.26759
H          H       0.41564   0.77369   0.37806
H          H       0.22631   0.64195   0.37806
H          H       0.35805   0.58436   0.37806
C          C       0.56929   0.77263   0.36088
C          C       0.22737   0.79666   0.36088
C          C       0.20334   0.43071   0.36088
Cl         Cl      0.52478   0.48264   0.37036
Cl         Cl      0.51736   0.04214   0.37036
Cl         Cl      0.95786   0.47522   0.37036
C          C       0.50852   0.75374   0.40019
C          C       0.24626   0.75478   0.40019
C          C       0.24522   0.49148   0.40019
H          H       0.54528   0.64021   0.14176
H          H       0.35979   0.90507   0.14176
H          H       0.09493   0.45472   0.14176
C          C       0.45963   0.69615   0.34658
C          C       0.30385   0.76348   0.34658
C          C       0.23652   0.54037   0.34658
H          H       0.52375   0.63381   0.15549
H          H       0.36619   0.88994   0.15549
H          H       0.11006   0.47625   0.15549
C          C       0.47224   0.65477   0.25620
C          C       0.34523   0.81747   0.25620
C          C       0.18253   0.52776   0.25620
H          H       0.46503   0.52582   0.02352
H          H       0.47418   0.93921   0.02352
H          H       0.06079   0.53497   0.02352
C          C       0.53445   0.67270   0.21549
C          C       0.32730   0.86175   0.21549
C          C       0.13825   0.46555   0.21549
H          H       0.64022   0.54232   0.34530
H          H       0.45768   0.09790   0.34530
H          H       0.90210   0.35978   0.34530
C          C       0.39490   0.68088   0.37409
C          C       0.31912   0.71402   0.37409
C          C       0.28598   0.60510   0.37409
C          C       0.94494   0.94343   0.70688
C          C       0.05657   0.00151   0.70688
C          C       0.99849   0.05506   0.70688
C          C       0.37982   0.72711   0.87799
C          C       0.27289   0.65271   0.87799
C          C       0.34729   0.62018   0.87799
C          C       0.00147   0.94593   0.70979
C          C       0.05407   0.05554   0.70979
C          C       0.94446   0.99853   0.70979
F          F       0.71785   0.81843   0.76924
F          F       0.18157   0.89942   0.76924
F          F       0.10058   0.28215   0.76924
C          C       0.88672   0.88402   0.68585
C          C       0.11598   0.00270   0.68585
C          C       0.99730   0.11328   0.68585
C          C       0.54939   0.61351   0.58690
C          C       0.38649   0.93588   0.58690
C          C       0.06412   0.45061   0.58690
C          C       0.83080   0.87841   0.74666
C          C       0.12159   0.95239   0.74666
C          C       0.04761   0.16920   0.74666
C          C       0.51662   0.55322   0.51320
C          C       0.44678   0.96340   0.51320
C          C       0.03660   0.48338   0.51320
C          C       0.77432   0.82366   0.71163
C          C       0.17634   0.95066   0.71163
C          C       0.04934   0.22568   0.71163
C          C       0.54914   0.52771   0.92665
C          C       0.47229   0.02143   0.92665
C          C       0.97857   0.45086   0.92665
C          C       0.77409   0.77431   0.61957
C          C       0.22569   0.99978   0.61957
C          C       0.00022   0.22591   0.61957
C          C       0.61443   0.56248   0.91379
C          C       0.43752   0.05195   0.91379
C          C       0.94805   0.38557   0.91379
C          C       0.83055   0.77954   0.56196
C          C       0.22046   0.05101   0.56196
C          C       0.94899   0.16945   0.56196
H          H       0.00261   0.90425   0.70988
H          H       0.09575   0.09836   0.70988
H          H       0.90164   0.99739   0.70988
C          C       0.88703   0.83430   0.59700
C          C       0.16570   0.05273   0.59700
C          C       0.94727   0.11297   0.59700
H          H       0.82946   0.91395   0.82107
H          H       0.08605   0.91551   0.82107
H          H       0.08449   0.17054   0.82107
C          C       0.71761   0.71956   0.58453
C          C       0.28044   0.99805   0.58453
C          C       0.00195   0.28239   0.58453
H          H       0.83044   0.74035   0.98876
H          H       0.25965   0.09009   0.98876
H          H       0.90991   0.16956   0.98876
C          C       0.65808   0.70779   0.63357
C          C       0.29221   0.95029   0.63357
C          C       0.04971   0.34192   0.63357
H          H       0.93168   0.83848   0.55152
H          H       0.16152   0.09320   0.55152
H          H       0.90680   0.06832   0.55152
N          N       0.61428   0.64790   0.57379
N          N       0.35210   0.96638   0.57379
N          N       0.03362   0.38572   0.57379
H          H       0.68226   0.79451   0.76697
H          H       0.20549   0.88775   0.76697
H          H       0.11225   0.31774   0.76697
C          C       0.64680   0.62239   0.98724
C          C       0.37761   0.02441   0.98724
C          C       0.97559   0.35320   0.98724
H          H       0.60778   0.81920   0.90206
H          H       0.18080   0.78858   0.90206
H          H       0.21142   0.39222   0.90206
N          N       0.71069   0.66651   0.99353
N          N       0.33349   0.04418   0.99353
N          N       0.95582   0.28931   0.99353
H          H       0.50007   0.78470   0.97606
H          H       0.21530   0.71537   0.97606
H          H       0.28463   0.49993   0.97606
N          N       0.64479   0.74917   0.72687
N          N       0.25083   0.89562   0.72687
N          N       0.10438   0.35521   0.72687
H          H       0.43375   0.60821   0.71501
H          H       0.39179   0.82554   0.71501
H          H       0.17446   0.56625   0.71501
C          C       0.58258   0.73125   0.76759
C          C       0.26875   0.85133   0.76759
C          C       0.14867   0.41742   0.76759
H          H       0.41564   0.77369   0.87806
H          H       0.22631   0.64195   0.87806
H          H       0.35805   0.58436   0.87806
C          C       0.56929   0.77263   0.86088
C          C       0.22737   0.79666   0.86088
C          C       0.20334   0.43071   0.86088
Cl         Cl      0.52478   0.48264   0.87036
Cl         Cl      0.51736   0.04214   0.87036
Cl         Cl      0.95786   0.47522   0.87036
C          C       0.50852   0.75374   0.90019
C          C       0.24626   0.75478   0.90019
C          C       0.24522   0.49148   0.90019
H          H       0.54528   0.64021   0.64176
H          H       0.35979   0.90507   0.64176
H          H       0.09493   0.45472   0.64176
C          C       0.45963   0.69615   0.84658
C          C       0.30385   0.76348   0.84658
C          C       0.23652   0.54037   0.84658
H          H       0.52375   0.63381   0.65549
H          H       0.36619   0.88994   0.65549
H          H       0.11006   0.47625   0.65549
C          C       0.47224   0.65477   0.75620
C          C       0.34523   0.81747   0.75620
C          C       0.18253   0.52776   0.75620
H          H       0.46503   0.52582   0.52352
H          H       0.47418   0.93921   0.52352
H          H       0.06079   0.53497   0.52352
C          C       0.53445   0.67270   0.71548
C          C       0.32730   0.86175   0.71548
C          C       0.13825   0.46555   0.71548
H          H       0.64022   0.54232   0.84530
H          H       0.45768   0.09790   0.84530
H          H       0.90210   0.35978   0.84530
C          C       0.39490   0.68088   0.87409
C          C       0.31912   0.71402   0.87409
C          C       0.28598   0.60510   0.87409
