data_crystal

_cell_length_a    29.15000
_cell_length_b    29.15000
_cell_length_c    16.56000
_cell_angle_alpha 90.00000
_cell_angle_beta  90.00000
_cell_angle_gamma 120.00000

_space_group_name_Hall 'P 1'
_space_group_name_H-M_alt  'P 1'

loop_
_symmetry_equiv_pos_as_xyz
 'x,y,z'

loop_
_atom_site_label
_atom_site_type_symbol
_atom_site_fract_x
_atom_site_fract_y
_atom_site_fract_z
C          C       0.34576   0.60609   0.46025
C          C       0.39391   0.73967   0.46025
C          C       0.26033   0.65424   0.46025
C          C       0.60609   0.34576   0.53975
C          C       0.73967   0.39391   0.53975
C          C       0.65424   0.26033   0.53975
C          C       0.65424   0.39391   0.53975
C          C       0.60609   0.26033   0.53975
C          C       0.73967   0.34576   0.53975
C          C       0.39391   0.65424   0.46025
C          C       0.26033   0.60609   0.46025
C          C       0.34576   0.73967   0.46025
C          C       0.34134   0.56055   0.42238
C          C       0.43945   0.78079   0.42238
C          C       0.21921   0.65866   0.42238
C          C       0.56055   0.34134   0.57762
C          C       0.78079   0.43945   0.57762
C          C       0.65866   0.21921   0.57762
C          C       0.65866   0.43945   0.57762
C          C       0.56055   0.21921   0.57762
C          C       0.78079   0.34134   0.57762
C          C       0.43945   0.65866   0.42238
C          C       0.21921   0.56055   0.42238
C          C       0.34134   0.78079   0.42238
C          C       0.38706   0.56486   0.38645
C          C       0.43514   0.82220   0.38645
C          C       0.17780   0.61294   0.38645
C          C       0.56486   0.38706   0.61355
C          C       0.82220   0.43514   0.61355
C          C       0.61294   0.17780   0.61355
C          C       0.61294   0.43514   0.61355
C          C       0.56486   0.17780   0.61355
C          C       0.82220   0.38706   0.61355
C          C       0.43514   0.61294   0.38645
C          C       0.17780   0.56486   0.38645
C          C       0.38706   0.82220   0.38645
O          O       0.47368   0.60716   0.35077
O          O       0.39284   0.86652   0.35077
O          O       0.13348   0.52632   0.35077
O          O       0.60716   0.47368   0.64923
O          O       0.86652   0.39284   0.64923
O          O       0.52632   0.13348   0.64923
O          O       0.52632   0.39284   0.64923
O          O       0.60716   0.13348   0.64923
O          O       0.86652   0.47368   0.64923
O          O       0.39284   0.52632   0.35077
O          O       0.13348   0.60716   0.35077
O          O       0.47368   0.86652   0.35077
C          C       0.44565   0.47099   0.26807
C          C       0.52901   0.97466   0.26807
C          C       0.02534   0.55435   0.26807
C          C       0.47099   0.44565   0.73193
C          C       0.97466   0.52901   0.73193
C          C       0.55435   0.02534   0.73193
C          C       0.55435   0.52901   0.73193
C          C       0.47099   0.02534   0.73193
C          C       0.97466   0.44565   0.73193
C          C       0.52901   0.55435   0.26807
C          C       0.02534   0.47099   0.26807
C          C       0.44565   0.97466   0.26807
C          C       0.47077   0.44588   0.23115
C          C       0.55412   0.02489   0.23115
C          C       0.97511   0.52923   0.23115
C          C       0.44588   0.47077   0.76885
C          C       0.02489   0.55412   0.76885
C          C       0.52923   0.97511   0.76885
C          C       0.52923   0.55412   0.76885
C          C       0.44588   0.97511   0.76885
C          C       0.02489   0.47077   0.76885
C          C       0.55412   0.52923   0.23115
C          C       0.97511   0.44588   0.23115
C          C       0.47077   0.02489   0.23115
C          C       0.60598   0.34582   0.03976
C          C       0.65418   0.26016   0.03976
C          C       0.73984   0.39402   0.03976
C          C       0.34582   0.60598   0.96024
C          C       0.26016   0.65418   0.96024
C          C       0.39402   0.73984   0.96024
C          C       0.39402   0.65418   0.96024
C          C       0.34582   0.73984   0.96024
C          C       0.26016   0.60598   0.96024
C          C       0.65418   0.39402   0.03976
C          C       0.73984   0.34582   0.03976
C          C       0.60598   0.26016   0.03976
C          C       0.56040   0.34145   0.07740
C          C       0.65855   0.21895   0.07740
C          C       0.78105   0.43960   0.07740
C          C       0.34145   0.56040   0.92260
C          C       0.21895   0.65855   0.92260
C          C       0.43960   0.78105   0.92260
C          C       0.43960   0.65855   0.92260
C          C       0.34145   0.78105   0.92260
C          C       0.21895   0.56040   0.92260
C          C       0.65855   0.43960   0.07740
C          C       0.78105   0.34145   0.07740
C          C       0.56040   0.21895   0.07740
C          C       0.56470   0.38722   0.11314
C          C       0.61278   0.17748   0.11314
C          C       0.82252   0.43530   0.11314
C          C       0.38722   0.56470   0.88686
C          C       0.17748   0.61278   0.88686
C          C       0.43530   0.82252   0.88686
C          C       0.43530   0.61278   0.88686
C          C       0.38722   0.82252   0.88686
C          C       0.17748   0.56470   0.88686
C          C       0.61278   0.43530   0.11314
C          C       0.82252   0.38722   0.11314
C          C       0.56470   0.17748   0.11314
O          O       0.52614   0.39303   0.14866
O          O       0.60697   0.13311   0.14866
O          O       0.86689   0.47386   0.14866
O          O       0.39303   0.52614   0.85134
O          O       0.13311   0.60697   0.85134
O          O       0.47386   0.86689   0.85134
O          O       0.47386   0.60697   0.85134
O          O       0.39303   0.86689   0.85134
O          O       0.13311   0.52614   0.85134
O          O       0.60697   0.47386   0.14866
O          O       0.86689   0.39303   0.14866
O          O       0.52614   0.13311   0.14866
H          H       0.30660   0.52524   0.42259
H          H       0.47476   0.78136   0.42259
H          H       0.21864   0.69340   0.42259
H          H       0.52524   0.30660   0.57741
H          H       0.78136   0.47476   0.57741
H          H       0.69340   0.21864   0.57741
H          H       0.69340   0.47476   0.57741
H          H       0.52524   0.21864   0.57741
H          H       0.78136   0.30660   0.57741
H          H       0.47476   0.69340   0.42259
H          H       0.21864   0.52524   0.42259
H          H       0.30660   0.78136   0.42259
H          H       0.40610   0.44898   0.28104
H          H       0.55102   0.95712   0.28104
H          H       0.04288   0.59390   0.28104
H          H       0.44898   0.40610   0.71896
H          H       0.95712   0.55102   0.71896
H          H       0.59390   0.04288   0.71896
H          H       0.59390   0.55102   0.71896
H          H       0.44898   0.04288   0.71896
H          H       0.95712   0.40610   0.71896
H          H       0.55102   0.59390   0.28104
H          H       0.04288   0.44898   0.28104
H          H       0.40610   0.95712   0.28104
H          H       0.44876   0.40633   0.21818
H          H       0.59367   0.04243   0.21818
H          H       0.95757   0.55124   0.21818
H          H       0.40633   0.44876   0.78182
H          H       0.04243   0.59367   0.78182
H          H       0.55124   0.95757   0.78182
H          H       0.55124   0.59367   0.78182
H          H       0.40633   0.95757   0.78182
H          H       0.04243   0.44876   0.78182
H          H       0.59367   0.55124   0.21818
H          H       0.95757   0.40633   0.21818
H          H       0.44876   0.04243   0.21818
H          H       0.52510   0.30671   0.07719
H          H       0.69329   0.21839   0.07719
H          H       0.78161   0.47490   0.07719
H          H       0.30671   0.52510   0.92281
H          H       0.21839   0.69329   0.92281
H          H       0.47490   0.78161   0.92281
H          H       0.47490   0.69329   0.92281
H          H       0.30671   0.78161   0.92281
H          H       0.21839   0.52510   0.92281
H          H       0.69329   0.47490   0.07719
H          H       0.78161   0.30671   0.07719
H          H       0.52510   0.21839   0.07719
H          H       0.35360   0.64640   0.15992
H          H       0.35360   0.70720   0.15992
H          H       0.29280   0.64640   0.15992
H          H       0.64640   0.35360   0.84008
H          H       0.70720   0.35360   0.84008
H          H       0.64640   0.29280   0.84008
B          B       0.55187   0.44813   0.17206
B          B       0.55187   0.10374   0.17206
B          B       0.89626   0.44813   0.17206
B          B       0.44813   0.55187   0.82794
B          B       0.10374   0.55187   0.82794
B          B       0.44813   0.89626   0.82794
B          B       0.44793   0.55207   0.32728
B          B       0.44793   0.89586   0.32728
B          B       0.10414   0.55207   0.32728
B          B       0.55207   0.44793   0.67272
B          B       0.89586   0.44793   0.67272
B          B       0.55207   0.10414   0.67272
C          C       0.47441   0.52559   0.28711
C          C       0.47441   0.94882   0.28711
C          C       0.05118   0.52559   0.28711
C          C       0.52559   0.47441   0.71289
C          C       0.94882   0.47441   0.71289
C          C       0.52559   0.05118   0.71289
C          C       0.52537   0.47463   0.21213
C          C       0.52537   0.05074   0.21213
C          C       0.94926   0.47463   0.21213
C          C       0.47463   0.52537   0.78787
C          C       0.05074   0.52537   0.78787
C          C       0.47463   0.94926   0.78787
C          C       0.69540   0.39080   0.99311
C          C       0.60920   0.30460   0.99311
C          C       0.69540   0.30460   0.99311
C          C       0.39080   0.69540   0.00689
C          C       0.30460   0.60920   0.00689
C          C       0.30460   0.69540   0.00689
H          H       0.71055   0.42109   0.94584
H          H       0.57891   0.28946   0.94584
H          H       0.71054   0.28945   0.94584
H          H       0.42109   0.71055   0.05416
H          H       0.28946   0.57891   0.05416
H          H       0.28945   0.71054   0.05416
C          C       0.30467   0.60935   0.50717
C          C       0.39065   0.69532   0.50717
C          C       0.30468   0.69533   0.50717
C          C       0.60935   0.30467   0.49283
C          C       0.69532   0.39065   0.49283
C          C       0.69533   0.30468   0.49283
H          H       0.28907   0.57814   0.55289
H          H       0.42186   0.71093   0.55289
H          H       0.28907   0.71093   0.55289
H          H       0.57814   0.28907   0.44711
H          H       0.71093   0.42186   0.44711
H          H       0.71093   0.28907   0.44711
C          C       0.66667   0.33333   0.95752
C          C       0.33333   0.66667   0.04248
C          C       0.66667   0.33333   0.86317
C          C       0.33333   0.66667   0.13683
C          C       0.66667   0.33333   0.45557
C          C       0.33333   0.66667   0.54443
C          C       0.66667   0.33333   0.36003
C          C       0.33333   0.66667   0.63997
H          H       0.37326   0.68663   0.66500
H          H       0.31337   0.68663   0.66500
H          H       0.31337   0.62674   0.66500
H          H       0.68663   0.37326   0.33500
H          H       0.68663   0.31337   0.33500
H          H       0.62674   0.31337   0.33500
