
#######################################################################
#
#                 Cambridge Crystallographic Data Centre
#                                CCDC 
#
#######################################################################
#
# If this CIF has been generated from an entry in the Cambridge 
# Structural Database, then it will include bibliographic, chemical, 
# crystal, experimental, refinement or atomic coordinate data resulting 
# from the CCDC's data processing and validation procedures.
#
#######################################################################

data_20670N3_PM
_symmetry_cell_setting           triclinic
_symmetry_space_group_name_H-M   'P 1'
_symmetry_Int_Tables_number      1
_space_group_name_Hall           'P 1'
loop_
_symmetry_equiv_pos_site_id
_symmetry_equiv_pos_as_xyz
1 x,y,z
_cell_length_a                   24.918000
_cell_length_b                   31.042000
_cell_length_c                   3.528000
_cell_angle_alpha                90.000000
_cell_angle_beta                 90.000000
_cell_angle_gamma                90.000000
_cell_volume                     2728.92
loop_
_atom_site_label
_atom_site_type_symbol
_atom_site_fract_x
_atom_site_fract_y
_atom_site_fract_z
C2 C 0.000550 0.434260 0.517871
C51 C 0.049410 0.520160 0.517871
C57 C 0.000550 0.606060 0.517871
H1 H 0.419810 0.009040 0.517860
H6 H 0.628550 0.008980 0.517871
C44 C 0.524090 0.044460 0.517871
C1 C 0.498620 0.916310 0.517871
C3 C 0.549560 0.916310 0.517871
C4 C 0.048730 0.434260 0.517871
C5 C 0.565570 0.962630 0.517871
C6 C 0.074610 0.476520 0.517871
C7 C 0.524090 0.995860 0.517871
C8 C 0.124990 0.476430 0.517871
C9 C 0.482620 0.962630 0.517871
C10 C 0.148310 0.520160 0.517871
C11 C 0.433770 0.971090 0.517860
C12 C 0.124990 0.563890 0.517871
C13 C 0.401990 0.932690 0.517871
C14 C 0.155710 0.607420 0.517871
C15 C 0.418860 0.885560 0.517871
C16 C 0.155710 0.432900 0.517871
C17 C 0.468120 0.877520 0.517871
C18 C 0.205410 0.602260 0.517871
C19 C 0.580070 0.877520 0.517871
C20 C 0.235300 0.641650 0.517871
C21 C 0.629330 0.885560 0.517871
C22 C 0.216240 0.687590 0.517871
C23 C 0.646190 0.932690 0.517871
C24 C 0.166940 0.693340 0.517871
C25 C 0.614420 0.971090 0.517871
C26 C 0.137080 0.653680 0.517871
C27 C 0.385580 0.844890 0.517871
C28 C 0.137080 0.386650 0.517871
C29 C 0.662610 0.844890 0.517871
C30 C 0.166940 0.346980 0.517871
C31 C 0.336180 0.851950 0.517871
C32 C 0.216240 0.352730 0.517860
C33 C 0.305140 0.813170 0.517871
C34 C 0.235300 0.398670 0.517860
C35 C 0.323250 0.766860 0.517871
C36 C 0.205410 0.438070 0.517871
C37 C 0.372290 0.759670 0.517871
C38 C 0.549560 0.124010 0.517871
C39 C 0.403200 0.798320 0.517871
C40 C 0.498620 0.124010 0.517871
C41 C 0.644980 0.798320 0.517871
C42 C 0.482620 0.077690 0.517871
C43 C 0.675890 0.759670 0.517871
C45 C 0.724930 0.766860 0.517871
C46 C 0.565570 0.077690 0.517871
C47 C 0.743040 0.813170 0.517871
C48 C 0.614420 0.069230 0.517871
C49 C 0.712010 0.851950 0.517871
C50 C 0.646190 0.107630 0.517871
C52 C 0.629330 0.154760 0.517871
C53 C 0.074610 0.563810 0.517871
C54 C 0.580070 0.162810 0.517871
C55 C 0.048730 0.606060 0.517871
C56 C 0.468120 0.162810 0.517871
C58 C 0.418860 0.154760 0.517871
C59 C 0.292210 0.315100 0.517871
C60 C 0.401990 0.107630 0.517871
N1 N 0.246290 0.728610 0.517871
C61 C 0.433770 0.069230 0.517871
N2 N 0.246290 0.311710 0.517860
C62 C 0.662610 0.195440 0.517871
N3 C 0.336180 0.188380 0.517871
C63 C 0.385580 0.195440 0.517871
N4 N 0.801900 0.311710 0.517871
C64 C 0.712010 0.188380 0.517871
C65 C 0.743040 0.227150 0.517871
H2 H 0.362060 0.939410 0.517871
C66 C 0.724930 0.273460 0.517860
H3 H 0.482440 0.839690 0.517871
C67 C 0.675890 0.280650 0.517871
H4 H 0.564990 0.839990 0.517860
C68 C 0.644980 0.242010 0.517871
H5 H 0.686030 0.939950 0.517871
C69 C 0.403200 0.242010 0.517871
C70 C 0.372290 0.280650 0.517871
H7 H 0.321100 0.889480 0.517871
C71 C 0.323250 0.273460 0.517871
H8 H 0.265110 0.819230 0.517871
C72 C 0.305140 0.227150 0.517871
H9 H 0.387230 0.722080 0.517871
C73 C 0.801900 0.728610 0.517871
H10 H 0.443240 0.792260 0.517871
C74 C 0.842780 0.438070 0.517871
H11 H 0.605020 0.791780 0.517871
C75 C 0.812880 0.398670 0.517871
H12 H 0.661120 0.722020 0.517871
C76 C 0.831950 0.352730 0.517871
H13 H 0.783070 0.819260 0.517871
C77 C 0.881240 0.346980 0.517871
H14 H 0.726770 0.889600 0.517860
C78 C 0.911100 0.653680 0.517871
H15 H 0.068090 0.641580 0.517871
C79 C 0.881240 0.693340 0.517871
H16 H 0.020790 0.641080 0.517860
C80 C 0.831950 0.687590 0.517871
H17 H 0.020790 0.399250 0.517860
C81 C 0.812880 0.641650 0.517871
H18 H 0.068980 0.399250 0.517871
C82 C 0.842780 0.602260 0.517871
H19 H 0.188780 0.521540 0.517871
C83 C 0.892470 0.432900 0.517871
H20 H 0.221920 0.565330 0.517871
C84 C 0.892470 0.607420 0.517871
H21 H 0.275480 0.636610 0.517871
C85 C 0.923200 0.563890 0.517871
H22 H 0.150910 0.730470 0.517871
C86 C 0.899870 0.520160 0.517871
H23 H 0.096880 0.658550 0.517871
C87 C 0.923200 0.476430 0.517871
H24 H 0.096990 0.380950 0.517871
C88 C 0.973570 0.476520 0.517871
H25 H 0.151080 0.309780 0.517871
C89 C 0.973570 0.563810 0.517871
H26 H 0.275450 0.403950 0.517860
C90 C 0.998770 0.520160 0.517871
H27 H 0.221130 0.475330 0.517871
C91 C 0.755980 0.725220 0.517871
H28 H 0.628370 0.031280 0.517871
C92 C 0.755980 0.315100 0.517860
H29 H 0.686120 0.100910 0.517871
C93 C 0.292210 0.725220 0.517860
H30 H 0.565750 0.200630 0.517871
H31 H 0.483200 0.200330 0.517871
H32 H 0.362160 0.100370 0.517871
H33 H 0.419630 0.031340 0.517871
H34 H 0.727080 0.150850 0.517871
H35 H 0.783080 0.221090 0.517871
H36 H 0.660960 0.318240 0.517860
H37 H 0.604940 0.248060 0.517871
H38 H 0.443170 0.248540 0.517871
H39 H 0.387060 0.318300 0.517871
H40 H 0.265110 0.221060 0.517871
H41 H 0.321420 0.150720 0.517871
H42 H 0.826270 0.474990 0.517860
H43 H 0.772700 0.403710 0.517871
H44 H 0.897280 0.309850 0.517871
H45 H 0.951300 0.381770 0.517871
H46 H 0.951200 0.659370 0.517871
H47 H 0.897110 0.730550 0.517871
H48 H 0.772730 0.636380 0.517871
H49 H 0.827050 0.564990 0.517871
H50 H 0.859400 0.518780 0.517871
H51 H 0.739930 0.688090 0.517871
H52 H 0.739930 0.352230 0.517860
H53 H 0.308250 0.688090 0.517860
H54 H 0.308250 0.352230 0.517871
C94 C 0.914522 0.387446 0.517871

#END
