data_crystal

_cell_length_a    24.91800
_cell_length_b    31.04200
_cell_length_c    3.52800
_cell_angle_alpha 90.00000
_cell_angle_beta  90.00000
_cell_angle_gamma 90.00000

_space_group_name_Hall 'P 1'
_space_group_name_H-M_alt  'P 1'

loop_
_symmetry_equiv_pos_as_xyz
'x,y,z'

loop_
_atom_site_label
_atom_site_type_symbol
_atom_site_fract_x
_atom_site_fract_y
_atom_site_fract_z
C          C       0.49862   0.91631   0.51787
C          C       0.00055   0.43426   0.51787
C          C       0.54956   0.91631   0.51787
C          C       0.04873   0.43426   0.51787
C          C       0.56557   0.96263   0.51787
C          C       0.07461   0.47652   0.51787
C          C       0.52409   0.99586   0.51787
C          C       0.12499   0.47643   0.51787
C          C       0.48262   0.96263   0.51787
C          C       0.14831   0.52016   0.51787
C          C       0.43377   0.97109   0.51786
C          C       0.12499   0.56389   0.51787
C          C       0.40199   0.93269   0.51787
C          C       0.15571   0.60742   0.51787
C          C       0.41886   0.88556   0.51787
C          C       0.15571   0.43290   0.51787
C          C       0.46812   0.87752   0.51787
C          C       0.20541   0.60226   0.51787
C          C       0.58007   0.87752   0.51787
C          C       0.23530   0.64165   0.51787
C          C       0.62933   0.88556   0.51787
C          C       0.21624   0.68759   0.51787
C          C       0.64619   0.93269   0.51787
C          C       0.16694   0.69334   0.51787
C          C       0.61442   0.97109   0.51787
C          C       0.13708   0.65368   0.51787
C          C       0.38558   0.84489   0.51787
C          C       0.13708   0.38665   0.51787
C          C       0.66261   0.84489   0.51787
C          C       0.16694   0.34698   0.51787
C          C       0.33618   0.85195   0.51787
C          C       0.21624   0.35273   0.51786
C          C       0.30514   0.81317   0.51787
C          C       0.23530   0.39867   0.51786
C          C       0.32325   0.76686   0.51787
C          C       0.20541   0.43807   0.51787
C          C       0.37229   0.75967   0.51787
C          C       0.54956   0.12401   0.51787
C          C       0.40320   0.79832   0.51787
C          C       0.49862   0.12401   0.51787
C          C       0.64498   0.79832   0.51787
C          C       0.48262   0.07769   0.51787
C          C       0.67589   0.75967   0.51787
C          C       0.52409   0.04446   0.51787
C          C       0.72493   0.76686   0.51787
C          C       0.56557   0.07769   0.51787
C          C       0.74304   0.81317   0.51787
C          C       0.61442   0.06923   0.51787
C          C       0.71201   0.85195   0.51787
C          C       0.64619   0.10763   0.51787
C          C       0.04941   0.52016   0.51787
C          C       0.62933   0.15476   0.51787
C          C       0.07461   0.56381   0.51787
C          C       0.58007   0.16281   0.51787
C          C       0.04873   0.60606   0.51787
C          C       0.46812   0.16281   0.51787
C          C       0.00055   0.60606   0.51787
C          C       0.41886   0.15476   0.51787
C          C       0.29221   0.31510   0.51787
C          C       0.40199   0.10763   0.51787
N          N       0.24629   0.72861   0.51787
C          C       0.43377   0.06923   0.51787
N          N       0.24629   0.31171   0.51786
C          C       0.66261   0.19544   0.51787
N          N       0.33618   0.18838   0.51787
C          C       0.38558   0.19544   0.51787
N          N       0.80190   0.31171   0.51787
C          C       0.71201   0.18838   0.51787
H          H       0.41981   0.00904   0.51786
C          C       0.74304   0.22715   0.51787
H          H       0.36206   0.93941   0.51787
C          C       0.72493   0.27346   0.51786
H          H       0.48244   0.83969   0.51787
C          C       0.67589   0.28065   0.51787
H          H       0.56499   0.83999   0.51786
C          C       0.64498   0.24201   0.51787
H          H       0.68603   0.93995   0.51787
C          C       0.40320   0.24201   0.51787
H          H       0.62855   0.00898   0.51787
C          C       0.37229   0.28065   0.51787
H          H       0.32110   0.88948   0.51787
C          C       0.32325   0.27346   0.51787
H          H       0.26511   0.81923   0.51787
C          C       0.30514   0.22715   0.51787
H          H       0.38723   0.72208   0.51787
C          C       0.80190   0.72861   0.51787
H          H       0.44324   0.79226   0.51787
C          C       0.84278   0.43807   0.51787
H          H       0.60502   0.79178   0.51787
C          C       0.81288   0.39867   0.51787
H          H       0.66112   0.72202   0.51787
C          C       0.83195   0.35273   0.51787
H          H       0.78307   0.81926   0.51787
C          C       0.88124   0.34698   0.51787
H          H       0.72677   0.88960   0.51786
C          C       0.91110   0.65368   0.51787
H          H       0.06809   0.64158   0.51787
C          C       0.88124   0.69334   0.51787
H          H       0.02079   0.64108   0.51786
C          C       0.83195   0.68759   0.51787
H          H       0.02079   0.39925   0.51786
C          C       0.81288   0.64165   0.51787
H          H       0.06898   0.39925   0.51787
C          C       0.84278   0.60226   0.51787
H          H       0.18878   0.52154   0.51787
C          C       0.89247   0.43290   0.51787
H          H       0.22192   0.56533   0.51787
C          C       0.89247   0.60742   0.51787
H          H       0.27548   0.63661   0.51787
C          C       0.92320   0.56389   0.51787
H          H       0.15091   0.73047   0.51787
C          C       0.89987   0.52016   0.51787
H          H       0.09688   0.65855   0.51787
C          C       0.92320   0.47643   0.51787
H          H       0.09699   0.38095   0.51787
C          C       0.97357   0.47652   0.51787
H          H       0.15108   0.30978   0.51787
C          C       0.97357   0.56381   0.51787
H          H       0.27545   0.40395   0.51786
C          C       0.99877   0.52016   0.51787
H          H       0.22113   0.47533   0.51787
C          C       0.75598   0.72522   0.51787
H          H       0.62837   0.03128   0.51787
C          C       0.75598   0.31510   0.51786
H          H       0.68612   0.10091   0.51787
C          C       0.29221   0.72522   0.51786
H          H       0.56575   0.20063   0.51787
H          H       0.48320   0.20033   0.51787
H          H       0.36216   0.10037   0.51787
H          H       0.41963   0.03134   0.51787
H          H       0.72708   0.15085   0.51787
H          H       0.78308   0.22109   0.51787
H          H       0.66096   0.31824   0.51786
H          H       0.60494   0.24806   0.51787
H          H       0.44317   0.24854   0.51787
H          H       0.38706   0.31830   0.51787
H          H       0.26511   0.22106   0.51787
H          H       0.32142   0.15072   0.51787
H          H       0.82627   0.47499   0.51786
H          H       0.77270   0.40371   0.51787
H          H       0.89728   0.30985   0.51787
H          H       0.95130   0.38177   0.51787
H          H       0.95120   0.65937   0.51787
H          H       0.89711   0.73055   0.51787
H          H       0.77273   0.63638   0.51787
H          H       0.82705   0.56499   0.51787
H          H       0.85940   0.51878   0.51787
H          H       0.73993   0.68809   0.51787
H          H       0.73993   0.35223   0.51786
H          H       0.30825   0.68809   0.51786
H          H       0.30825   0.35223   0.51787
