data_crystal

_cell_length_a    24.66400
_cell_length_b    31.45400
_cell_length_c    6.58200
_cell_angle_alpha 90.00000
_cell_angle_beta  90.00000
_cell_angle_gamma 90.00000

_space_group_name_Hall 'P 1'
_space_group_name_H-M_alt  'P 1'

loop_
_symmetry_equiv_pos_as_xyz
 'x,y,z'

loop_
_atom_site_label
_atom_site_type_symbol
_atom_site_fract_x
_atom_site_fract_y
_atom_site_fract_z
C          C       0.48170   0.90038   0.29908
C          C       0.47147   0.08230   0.34103
C          C       0.52902   0.90244   0.33259
C          C       0.45678   0.04050   0.33552
C          C       0.54310   0.94435   0.33197
C          C       0.49830   0.01393   0.29867
C          C       0.50209   0.97115   0.29694
C          C       0.53384   0.04489   0.27189
C          C       0.46634   0.94021   0.26710
C          C       0.57416   0.03990   0.18682
C          C       0.42644   0.94528   0.17750
C          C       0.60311   0.07478   0.17281
C          C       0.39785   0.91003   0.15633
C          C       0.59000   0.11532   0.23360
C          C       0.41125   0.86927   0.21408
C          C       0.54634   0.12013   0.29663
C          C       0.45483   0.86467   0.28084
C          C       0.44271   0.11639   0.35792
C          C       0.55809   0.86849   0.34431
C          C       0.39697   0.10963   0.37950
C          C       0.60368   0.87590   0.36701
C          C       0.38166   0.06744   0.38647
C          C       0.61863   0.91799   0.38125
C          C       0.41020   0.03248   0.36471
C          C       0.58935   0.95271   0.36311
C          C       0.62004   0.15291   0.22313
C          C       0.38094   0.83180   0.20235
C          C       0.36610   0.14676   0.39139
C          C       0.63494   0.83936   0.36595
C          C       0.66553   0.14966   0.26353
C          C       0.33516   0.83564   0.23505
C          C       0.69270   0.18560   0.26789
C          C       0.30754   0.79991   0.24024
C          C       0.67544   0.22575   0.22863
C          C       0.32494   0.75931   0.21061
C          C       0.63041   0.22862   0.18298
C          C       0.37034   0.75560   0.17462
C          C       0.60332   0.19280   0.17819
C          C       0.39787   0.79108   0.16969
C          C       0.38195   0.18630   0.45136
C          C       0.62226   0.80000   0.43834
C          C       0.35600   0.22251   0.43870
C          C       0.64868   0.76424   0.41574
C          C       0.31234   0.22028   0.37367
C          C       0.68911   0.76667   0.32419
C          C       0.29553   0.18077   0.32080
C          C       0.70279   0.80599   0.25887
C          C       0.32203   0.14450   0.32952
C          C       0.67602   0.84198   0.27927
C          C       0.09487   0.47022   0.26557
C          C       0.29663   0.72061   0.21624
C          C       0.09535   0.51622   0.27428
C          C       0.28672   0.25983   0.35296
C          C       0.05169   0.53017   0.28127
C          C       0.51877   0.08467   0.30849
C          C       0.02007   0.49353   0.26652
C          C       0.05105   0.45665   0.25453
C          C       0.94897   0.42134   0.39050
C          C       0.04270   0.41423   0.21666
C          C       0.84416   0.62384   0.17144
C          C       0.07735   0.38532   0.21859
C          C       0.83702   0.36731   0.32274
C          C       0.12107   0.39769   0.25634
C          C       0.85964   0.66485   0.20697
C          C       0.13027   0.44131   0.27097
C          C       0.83043   0.69860   0.22695
C          C       0.13148   0.54441   0.27239
C          C       0.78474   0.69256   0.21755
C          C       0.12330   0.58844   0.28731
C          C       0.76869   0.65174   0.18231
C          C       0.07921   0.60142   0.32095
C          C       0.79810   0.61772   0.16068
C          C       0.04400   0.57292   0.31768
C          C       0.79110   0.37503   0.33178
C          C       0.15528   0.36404   0.28616
C          C       0.76033   0.34178   0.31554
C          C       0.15895   0.62160   0.26700
C          C       0.77458   0.29991   0.28980
C          C       0.14215   0.32523   0.36312
C          C       0.82019   0.29216   0.27896
C          C       0.17179   0.29166   0.37803
C          C       0.85082   0.32513   0.29320
C          C       0.21580   0.29606   0.32471
N          N       0.24358   0.25950   0.33776
C          C       0.22984   0.33484   0.25263
N          N       0.25381   0.72275   0.23301
C          C       0.19987   0.36865   0.23361
N          N       0.75627   0.72870   0.24211
C          C       0.20338   0.61449   0.31572
N          N       0.74464   0.26432   0.27882
C          C       0.23518   0.64710   0.30385
H          H       0.41860   0.97611   0.12293
C          C       0.22321   0.68765   0.24102
H          H       0.36664   0.91451   0.08800
C          C       0.17915   0.69453   0.19317
H          H       0.46718   0.83423   0.32100
C          C       0.14801   0.66204   0.20136
H          H       0.54540   0.83686   0.32820
C          C       0.70280   0.26509   0.23747
H          H       0.65341   0.92421   0.40827
C          C       0.71546   0.72774   0.29906
H          H       0.60658   0.98385   0.38375
C          C       0.90018   0.51647   0.22257
H          H       0.32077   0.86613   0.26260
C          C       0.89881   0.47235   0.27485
H          H       0.27272   0.80366   0.26922
C          C       0.94202   0.45967   0.30595
H          H       0.38443   0.72485   0.15032
C          C       0.97435   0.49377   0.26116
H          H       0.43256   0.78667   0.13949
C          C       0.94403   0.52825   0.20388
H          H       0.59196   0.79719   0.01555
C          C       0.95376   0.56630   0.12290
H          H       0.63774   0.73464   0.47264
C          C       0.92047   0.59624   0.09995
H          H       0.73384   0.80863   0.18811
C          C       0.87650   0.58806   0.15623
H          H       0.68663   0.87134   0.22051
C          C       0.86581   0.54611   0.20725
H          H       0.31244   0.69026   0.19638
C          C       0.86310   0.44392   0.28296
H          H       0.30410   0.28983   0.36558
C          C       0.87116   0.40178   0.33869
H          H       0.58245   0.00940   0.13063
C          C       0.91405   0.39227   0.40485
H          H       0.63452   0.07045   0.10834
H          H       0.53346   0.15059   0.33419
H          H       0.73359   0.64624   0.16836
H          H       0.45612   0.14796   0.34660
H          H       0.78463   0.58700   0.13428
H          H       0.34722   0.06115   0.40721
H          H       0.77901   0.40661   0.35542
H          H       0.39212   0.00132   0.37029
H          H       0.72569   0.34881   0.32759
H          H       0.67950   0.11938   0.29831
H          H       0.83206   0.26029   0.25541
H          H       0.72705   0.18229   0.30519
H          H       0.88563   0.31732   0.27543
H          H       0.61628   0.25915   0.15099
H          H       0.56905   0.19643   0.13989
H          H       0.41451   0.18952   0.00757
H          H       0.36991   0.25224   0.48182
H          H       0.26199   0.17838   0.26715
H          H       0.30837   0.11502   0.28040
H          H       0.01018   0.40186   0.18826
H          H       0.06938   0.35289   0.19305
H          H       0.16352   0.45211   0.29397
H          H       0.16464   0.53256   0.25601
H          H       0.07151   0.63416   0.34770
H          H       0.01133   0.58538   0.33988
H          H       0.10883   0.32088   0.41396
H          H       0.16086   0.26220   0.43642
H          H       0.26305   0.33846   0.20247
H          H       0.21100   0.39740   0.17039
H          H       0.21319   0.58428   0.36947
H          H       0.26850   0.64118   0.34964
H          H       0.16940   0.72512   0.14361
H          H       0.11504   0.66864   0.15465
H          H       0.68694   0.29450   0.20402
H          H       0.70078   0.69800   0.33637
H          H       0.98707   0.57316   0.08411
H          H       0.92953   0.62626   0.04070
H          H       0.83254   0.53741   0.24371
H          H       0.83107   0.45395   0.23584
H          H       0.92067   0.36213   0.46817
H          H       0.98114   0.41435   0.44262
H          H       0.89447   0.67120   0.22366
H          H       0.84316   0.73002   0.25225
C          C       0.48170   0.90038   0.79908
C          C       0.47147   0.08230   0.84103
C          C       0.52902   0.90244   0.83259
C          C       0.45678   0.04050   0.83552
C          C       0.54310   0.94435   0.83197
C          C       0.49830   0.01393   0.79866
C          C       0.50209   0.97115   0.79694
C          C       0.53384   0.04489   0.77189
C          C       0.46634   0.94021   0.76710
C          C       0.57416   0.03990   0.68682
C          C       0.42644   0.94528   0.67751
C          C       0.60311   0.07478   0.67281
C          C       0.39785   0.91003   0.65634
C          C       0.59000   0.11532   0.73360
C          C       0.41125   0.86927   0.71408
C          C       0.54634   0.12013   0.79663
C          C       0.45483   0.86467   0.78084
C          C       0.44271   0.11639   0.85792
C          C       0.55809   0.86849   0.84431
C          C       0.39697   0.10963   0.87950
C          C       0.60368   0.87590   0.86701
C          C       0.38166   0.06744   0.88647
C          C       0.61863   0.91799   0.88125
C          C       0.41020   0.03248   0.86471
C          C       0.58935   0.95271   0.86311
C          C       0.62004   0.15291   0.72313
C          C       0.38094   0.83180   0.70235
C          C       0.36610   0.14676   0.89139
C          C       0.63494   0.83936   0.86595
C          C       0.66553   0.14966   0.76353
C          C       0.33516   0.83564   0.73505
C          C       0.69270   0.18560   0.76789
C          C       0.30754   0.79991   0.74024
C          C       0.67544   0.22575   0.72863
C          C       0.32494   0.75931   0.71061
C          C       0.63041   0.22862   0.68298
C          C       0.37034   0.75560   0.67462
C          C       0.60332   0.19280   0.67819
C          C       0.39787   0.79108   0.66969
C          C       0.38195   0.18630   0.95136
C          C       0.62226   0.80000   0.93834
C          C       0.35600   0.22251   0.93870
C          C       0.64868   0.76424   0.91574
C          C       0.31234   0.22028   0.87366
C          C       0.68911   0.76667   0.82419
C          C       0.29553   0.18077   0.82080
C          C       0.70279   0.80599   0.75887
C          C       0.32203   0.14450   0.82952
C          C       0.67602   0.84198   0.77927
C          C       0.09487   0.47022   0.76557
C          C       0.29663   0.72061   0.71623
C          C       0.09535   0.51622   0.77428
C          C       0.28672   0.25983   0.85296
C          C       0.05169   0.53017   0.78127
C          C       0.51877   0.08467   0.80848
C          C       0.02007   0.49353   0.76652
C          C       0.05105   0.45665   0.75453
C          C       0.94897   0.42134   0.89050
C          C       0.04270   0.41423   0.71666
C          C       0.84416   0.62384   0.67144
C          C       0.07735   0.38532   0.71859
C          C       0.83702   0.36731   0.82274
C          C       0.12107   0.39769   0.75634
C          C       0.85964   0.66485   0.70698
C          C       0.13027   0.44131   0.77097
C          C       0.83043   0.69860   0.72695
C          C       0.13148   0.54441   0.77240
C          C       0.78474   0.69256   0.71755
C          C       0.12330   0.58844   0.78731
C          C       0.76869   0.65174   0.68231
C          C       0.07921   0.60142   0.82095
C          C       0.79810   0.61772   0.66068
C          C       0.04400   0.57292   0.81768
C          C       0.79110   0.37503   0.83178
C          C       0.15528   0.36404   0.78616
C          C       0.76033   0.34178   0.81554
C          C       0.15895   0.62160   0.76700
C          C       0.77458   0.29991   0.78980
C          C       0.14215   0.32523   0.86312
C          C       0.82019   0.29216   0.77896
C          C       0.17179   0.29166   0.87803
C          C       0.85082   0.32513   0.79320
C          C       0.21580   0.29606   0.82471
N          N       0.24358   0.25950   0.83776
C          C       0.22984   0.33484   0.75263
N          N       0.25381   0.72275   0.73301
C          C       0.19987   0.36865   0.73361
N          N       0.75627   0.72870   0.74211
C          C       0.20338   0.61449   0.81572
N          N       0.74464   0.26432   0.77882
C          C       0.23518   0.64710   0.80385
H          H       0.41860   0.97611   0.62293
C          C       0.22321   0.68765   0.74102
H          H       0.36664   0.91451   0.58800
C          C       0.17915   0.69453   0.69317
H          H       0.46718   0.83423   0.82100
C          C       0.14801   0.66204   0.70136
H          H       0.54540   0.83686   0.82820
C          C       0.70280   0.26509   0.73747
H          H       0.65341   0.92421   0.90828
C          C       0.71546   0.72774   0.79905
H          H       0.60658   0.98385   0.88375
C          C       0.90018   0.51647   0.72257
H          H       0.32077   0.86613   0.76260
C          C       0.89881   0.47235   0.77485
H          H       0.27272   0.80366   0.76922
C          C       0.94202   0.45967   0.80595
H          H       0.38443   0.72485   0.65032
C          C       0.97435   0.49377   0.76116
H          H       0.43256   0.78667   0.63949
C          C       0.94403   0.52825   0.70388
H          H       0.59196   0.79719   0.51555
C          C       0.95376   0.56630   0.62290
H          H       0.63774   0.73464   0.97264
C          C       0.92047   0.59624   0.59995
H          H       0.73384   0.80863   0.68811
C          C       0.87650   0.58806   0.65623
H          H       0.68663   0.87134   0.72051
C          C       0.86581   0.54611   0.70725
H          H       0.31244   0.69026   0.69638
C          C       0.86310   0.44392   0.78295
H          H       0.30410   0.28983   0.86558
C          C       0.87116   0.40178   0.83869
H          H       0.58245   0.00940   0.63063
C          C       0.91405   0.39227   0.90485
H          H       0.63452   0.07045   0.60835
H          H       0.53346   0.15059   0.83418
H          H       0.73359   0.64624   0.66835
H          H       0.45612   0.14796   0.84660
H          H       0.78463   0.58700   0.63428
H          H       0.34722   0.06115   0.90721
H          H       0.77901   0.40661   0.85542
H          H       0.39212   0.00132   0.87029
H          H       0.72569   0.34881   0.82759
H          H       0.67950   0.11938   0.79831
H          H       0.83206   0.26029   0.75541
H          H       0.72705   0.18229   0.80519
H          H       0.88563   0.31732   0.77543
H          H       0.61628   0.25915   0.65099
H          H       0.56905   0.19643   0.63989
H          H       0.41451   0.18952   0.50757
H          H       0.36991   0.25224   0.98183
H          H       0.26199   0.17838   0.76715
H          H       0.30837   0.11502   0.78039
H          H       0.01018   0.40186   0.68826
H          H       0.06938   0.35289   0.69305
H          H       0.16352   0.45211   0.79397
H          H       0.16464   0.53256   0.75601
H          H       0.07151   0.63416   0.84770
H          H       0.01133   0.58538   0.83988
H          H       0.10883   0.32088   0.91396
H          H       0.16086   0.26220   0.93643
H          H       0.26305   0.33846   0.70247
H          H       0.21100   0.39740   0.67039
H          H       0.21319   0.58428   0.86948
H          H       0.26850   0.64118   0.84964
H          H       0.16940   0.72512   0.64360
H          H       0.11504   0.66864   0.65465
H          H       0.68694   0.29450   0.70401
H          H       0.70078   0.69800   0.83637
H          H       0.98707   0.57316   0.58411
H          H       0.92953   0.62626   0.54069
H          H       0.83254   0.53741   0.74371
H          H       0.83107   0.45395   0.73584
H          H       0.92067   0.36213   0.96817
H          H       0.98114   0.41435   0.94262
H          H       0.89447   0.67120   0.72366
H          H       0.84316   0.73002   0.75225
