data_crystal

_cell_length_a    31.90900
_cell_length_b    28.27400
_cell_length_c    8.14600
_cell_angle_alpha 90.00000
_cell_angle_beta  90.00000
_cell_angle_gamma 90.00000

_space_group_name_Hall 'P 1'
_space_group_name_H-M_alt  'P 1'

loop_
_symmetry_equiv_pos_as_xyz
'x,y,z'

loop_
_atom_site_label
_atom_site_type_symbol
_atom_site_fract_x
_atom_site_fract_y
_atom_site_fract_z
C          C       0.47820   0.89691   0.22545
C          C       0.52180   0.10309   0.22545
C          C       0.52180   0.89691   0.27455
C          C       0.47820   0.10309   0.27455
H          H       0.36647   0.92309   0.07492
H          H       0.63353   0.07691   0.07492
H          H       0.63353   0.92309   0.42508
H          H       0.36647   0.07691   0.42508
C          C       0.53531   0.94320   0.28787
C          C       0.46469   0.05680   0.28787
C          C       0.46469   0.94320   0.21213
C          C       0.53531   0.05680   0.21213
H          H       0.46553   0.82325   0.19142
H          H       0.53447   0.17675   0.19142
H          H       0.53447   0.82325   0.30858
H          H       0.46553   0.17675   0.30858
C          C       0.42502   0.95225   0.14747
C          C       0.57498   0.04775   0.14747
C          C       0.57498   0.95225   0.35252
C          C       0.42502   0.04775   0.35252
H          H       0.34053   0.86489   0.06709
H          H       0.65947   0.13511   0.06709
H          H       0.65947   0.86489   0.43291
H          H       0.34053   0.13511   0.43291
C          C       0.39790   0.91449   0.11386
C          C       0.60210   0.08551   0.11386
C          C       0.60210   0.91449   0.38614
C          C       0.39790   0.08551   0.38614
H          H       0.28831   0.80253   0.08846
H          H       0.71169   0.19747   0.08846
H          H       0.71169   0.80253   0.41154
H          H       0.28831   0.19747   0.41154
C          C       0.41115   0.86689   0.13220
C          C       0.58885   0.13311   0.13220
C          C       0.58885   0.86689   0.36780
C          C       0.41115   0.13311   0.36780
H          H       0.36325   0.71273   0.22083
H          H       0.63675   0.28727   0.22083
H          H       0.63675   0.71273   0.27917
H          H       0.36325   0.28727   0.27917
C          C       0.45273   0.85852   0.18471
C          C       0.54727   0.14148   0.18471
C          C       0.54727   0.85852   0.31529
C          C       0.45273   0.14148   0.31529
H          H       0.41362   0.77603   0.25829
H          H       0.58638   0.22397   0.25829
H          H       0.58638   0.77603   0.24171
H          H       0.41362   0.22397   0.24171
C          C       0.38155   0.82667   0.10064
C          C       0.61845   0.17333   0.10064
C          C       0.61845   0.82667   0.39935
C          C       0.38155   0.17333   0.39935
H          H       0.29727   0.68090   0.10232
H          H       0.70273   0.31910   0.10232
H          H       0.70273   0.68090   0.39769
H          H       0.29727   0.31910   0.39769
C          C       0.34574   0.83266   0.00110
C          C       0.65426   0.16734   0.00110
C          C       0.65426   0.83266   0.49891
C          C       0.34574   0.16734   0.49891
H          H       0.17420   0.74701   0.13032
H          H       0.82580   0.25299   0.13032
H          H       0.82580   0.74701   0.36968
H          H       0.17420   0.25299   0.36968
C          C       0.31592   0.79669   0.01374
C          C       0.68408   0.20331   0.01374
C          C       0.68408   0.79669   0.48625
C          C       0.31592   0.20331   0.48625
H          H       0.11561   0.69178   0.17020
H          H       0.88439   0.30822   0.17020
H          H       0.88439   0.69178   0.32980
H          H       0.11561   0.30822   0.32980
C          C       0.32178   0.75324   0.06571
C          C       0.67822   0.24676   0.06571
C          C       0.67822   0.75324   0.43429
C          C       0.32178   0.24676   0.43429
H          H       0.19155   0.57867   0.02602
H          H       0.80845   0.42133   0.02602
H          H       0.80845   0.57867   0.47397
H          H       0.19155   0.42133   0.47397
C          C       0.35837   0.74587   0.15691
C          C       0.64163   0.25413   0.15691
C          C       0.64163   0.74587   0.34309
C          C       0.35837   0.25413   0.34309
H          H       0.25016   0.63417   0.05953
H          H       0.74984   0.36583   0.05953
H          H       0.74984   0.63417   0.44046
H          H       0.25016   0.36583   0.44046
C          C       0.38758   0.78228   0.17639
C          C       0.61242   0.21772   0.17639
C          C       0.61242   0.78228   0.32361
C          C       0.38758   0.21772   0.32361
H          H       0.06446   0.64425   0.03761
H          H       0.93554   0.35575   0.03761
H          H       0.93554   0.64425   0.46239
H          H       0.06446   0.35575   0.46239
C          C       0.28925   0.71625   0.06146
C          C       0.71075   0.28375   0.06146
C          C       0.71075   0.71625   0.43855
C          C       0.28925   0.28375   0.43855
H          H       0.00795   0.59087   0.12237
H          H       0.99205   0.40913   0.12237
H          H       0.99205   0.59087   0.37762
H          H       0.00795   0.40913   0.37762
C          C       0.21634   0.69439   0.03662
C          C       0.78366   0.30561   0.03662
C          C       0.78366   0.69439   0.46338
C          C       0.21634   0.30561   0.46338
H          H       0.15580   0.54053   0.19699
H          H       0.84420   0.45947   0.19699
H          H       0.84420   0.54053   0.30301
H          H       0.15580   0.45947   0.30301
C          C       0.17771   0.71036   0.09478
C          C       0.82229   0.28964   0.09478
C          C       0.82229   0.71036   0.40522
C          C       0.17771   0.28964   0.40522
C          C       0.14441   0.67886   0.11621
C          C       0.85559   0.32114   0.11621
C          C       0.85559   0.67886   0.38379
C          C       0.14441   0.32114   0.38379
C          C       0.14905   0.63076   0.07596
C          C       0.85095   0.36924   0.07596
C          C       0.85095   0.63076   0.42404
C          C       0.14905   0.36924   0.42404
C          C       0.18743   0.61522   0.01008
C          C       0.81257   0.38478   0.01008
C          C       0.81257   0.61522   0.48992
C          C       0.18743   0.38478   0.48992
C          C       0.22088   0.64677   0.00901
C          C       0.77912   0.35323   0.00901
C          C       0.77912   0.64677   0.49099
C          C       0.22088   0.35323   0.49099
C          C       0.11470   0.59676   0.11066
C          C       0.88530   0.40324   0.11066
C          C       0.88530   0.59676   0.38934
C          C       0.11470   0.40324   0.38934
C          C       0.07227   0.61000   0.08855
C          C       0.92773   0.39000   0.08855
C          C       0.92773   0.61000   0.41145
C          C       0.07227   0.39000   0.41145
C          C       0.03958   0.57927   0.13326
C          C       0.96042   0.42073   0.13326
C          C       0.96042   0.57927   0.36674
C          C       0.03958   0.42073   0.36674
C          C       0.04907   0.53503   0.19839
C          C       0.95093   0.46497   0.19839
C          C       0.95093   0.53503   0.30161
C          C       0.04907   0.46497   0.30161
C          C       0.09053   0.52215   0.21691
C          C       0.90947   0.47785   0.21691
C          C       0.90947   0.52215   0.28309
C          C       0.09053   0.47785   0.28309
C          C       0.12386   0.55166   0.17511
C          C       0.87614   0.44834   0.17511
C          C       0.87614   0.55166   0.32489
C          C       0.12386   0.44834   0.32489
C          C       0.50000   0.97590   0.25000
C          C       0.50000   0.02410   0.25000
N          N       0.25055   0.27284   0.47046
N          N       0.74945   0.72716   0.47046
N          N       0.74945   0.27284   0.02954
N          N       0.25055   0.72716   0.02954
N          N       0.02248   0.50000   0.25000
N          N       0.97752   0.50000   0.25000
H          H       0.41459   0.98760   0.12383
H          H       0.58541   0.01240   0.12383
H          H       0.58541   0.98760   0.37617
H          H       0.41459   0.01240   0.37617
C          C       0.47820   0.89691   0.72545
C          C       0.52180   0.10309   0.72545
C          C       0.52180   0.89691   0.77455
C          C       0.47820   0.10309   0.77455
H          H       0.36647   0.92309   0.57492
H          H       0.63353   0.07691   0.57492
H          H       0.63353   0.92309   0.92508
H          H       0.36647   0.07691   0.92508
C          C       0.53531   0.94320   0.78787
C          C       0.46469   0.05680   0.78787
C          C       0.46469   0.94320   0.71213
C          C       0.53531   0.05680   0.71213
H          H       0.46553   0.82325   0.69142
H          H       0.53447   0.17675   0.69142
H          H       0.53447   0.82325   0.80858
H          H       0.46553   0.17675   0.80858
C          C       0.42502   0.95225   0.64748
C          C       0.57498   0.04775   0.64748
C          C       0.57498   0.95225   0.85252
C          C       0.42502   0.04775   0.85252
H          H       0.34053   0.86489   0.56708
H          H       0.65947   0.13511   0.56708
H          H       0.65947   0.86489   0.93291
H          H       0.34053   0.13511   0.93291
C          C       0.39790   0.91449   0.61386
C          C       0.60210   0.08551   0.61386
C          C       0.60210   0.91449   0.88614
C          C       0.39790   0.08551   0.88614
H          H       0.28831   0.80253   0.58846
H          H       0.71169   0.19747   0.58846
H          H       0.71169   0.80253   0.91154
H          H       0.28831   0.19747   0.91154
C          C       0.41115   0.86689   0.63220
C          C       0.58885   0.13311   0.63220
C          C       0.58885   0.86689   0.86780
C          C       0.41115   0.13311   0.86780
H          H       0.36325   0.71273   0.72083
H          H       0.63675   0.28727   0.72083
H          H       0.63675   0.71273   0.77917
H          H       0.36325   0.28727   0.77917
C          C       0.45273   0.85852   0.68471
C          C       0.54727   0.14148   0.68471
C          C       0.54727   0.85852   0.81529
C          C       0.45273   0.14148   0.81529
H          H       0.41362   0.77603   0.75829
H          H       0.58638   0.22397   0.75829
H          H       0.58638   0.77603   0.74171
H          H       0.41362   0.22397   0.74171
C          C       0.38155   0.82667   0.60064
C          C       0.61845   0.17333   0.60064
C          C       0.61845   0.82667   0.89936
C          C       0.38155   0.17333   0.89936
H          H       0.29727   0.68090   0.60232
H          H       0.70273   0.31910   0.60232
H          H       0.70273   0.68090   0.89769
H          H       0.29727   0.31910   0.89769
C          C       0.34574   0.83266   0.50109
C          C       0.65426   0.16734   0.50109
C          C       0.65426   0.83266   0.99891
C          C       0.34574   0.16734   0.99891
H          H       0.17420   0.74701   0.63032
H          H       0.82580   0.25299   0.63032
H          H       0.82580   0.74701   0.86968
H          H       0.17420   0.25299   0.86968
C          C       0.31592   0.79669   0.51375
C          C       0.68408   0.20331   0.51375
C          C       0.68408   0.79669   0.98625
C          C       0.31592   0.20331   0.98625
H          H       0.11561   0.69178   0.67020
H          H       0.88439   0.30822   0.67020
H          H       0.88439   0.69178   0.82980
H          H       0.11561   0.30822   0.82980
C          C       0.32178   0.75324   0.56571
C          C       0.67822   0.24676   0.56571
C          C       0.67822   0.75324   0.93429
C          C       0.32178   0.24676   0.93429
H          H       0.19155   0.57867   0.52602
H          H       0.80845   0.42133   0.52602
H          H       0.80845   0.57867   0.97398
H          H       0.19155   0.42133   0.97398
C          C       0.35837   0.74587   0.65691
C          C       0.64163   0.25413   0.65691
C          C       0.64163   0.74587   0.84309
C          C       0.35837   0.25413   0.84309
H          H       0.25016   0.63417   0.55954
H          H       0.74984   0.36583   0.55954
H          H       0.74984   0.63417   0.94046
H          H       0.25016   0.36583   0.94046
C          C       0.38758   0.78228   0.67639
C          C       0.61242   0.21772   0.67639
C          C       0.61242   0.78228   0.82361
C          C       0.38758   0.21772   0.82361
H          H       0.06446   0.64425   0.53761
H          H       0.93554   0.35575   0.53761
H          H       0.93554   0.64425   0.96239
H          H       0.06446   0.35575   0.96239
C          C       0.28925   0.71625   0.56146
C          C       0.71075   0.28375   0.56146
C          C       0.71075   0.71625   0.93854
C          C       0.28925   0.28375   0.93854
H          H       0.00795   0.59087   0.62237
H          H       0.99205   0.40913   0.62237
H          H       0.99205   0.59087   0.87762
H          H       0.00795   0.40913   0.87762
C          C       0.21634   0.69439   0.53662
C          C       0.78366   0.30561   0.53662
C          C       0.78366   0.69439   0.96338
C          C       0.21634   0.30561   0.96338
H          H       0.15580   0.54053   0.69699
H          H       0.84420   0.45947   0.69699
H          H       0.84420   0.54053   0.80301
H          H       0.15580   0.45947   0.80301
C          C       0.17771   0.71036   0.59478
C          C       0.82229   0.28964   0.59478
C          C       0.82229   0.71036   0.90522
C          C       0.17771   0.28964   0.90522
C          C       0.14441   0.67886   0.61621
C          C       0.85559   0.32114   0.61621
C          C       0.85559   0.67886   0.88379
C          C       0.14441   0.32114   0.88379
C          C       0.14905   0.63076   0.57596
C          C       0.85095   0.36924   0.57596
C          C       0.85095   0.63076   0.92404
C          C       0.14905   0.36924   0.92404
C          C       0.18743   0.61522   0.51008
C          C       0.81257   0.38478   0.51008
C          C       0.81257   0.61522   0.98992
C          C       0.18743   0.38478   0.98992
C          C       0.22088   0.64677   0.50901
C          C       0.77912   0.35323   0.50901
C          C       0.77912   0.64677   0.99099
C          C       0.22088   0.35323   0.99099
C          C       0.11470   0.59676   0.61066
C          C       0.88530   0.40324   0.61066
C          C       0.88530   0.59676   0.88934
C          C       0.11470   0.40324   0.88934
C          C       0.07227   0.61000   0.58855
C          C       0.92773   0.39000   0.58855
C          C       0.92773   0.61000   0.91145
C          C       0.07227   0.39000   0.91145
C          C       0.03958   0.57927   0.63326
C          C       0.96042   0.42073   0.63326
C          C       0.96042   0.57927   0.86674
C          C       0.03958   0.42073   0.86674
C          C       0.04907   0.53503   0.69839
C          C       0.95093   0.46497   0.69839
C          C       0.95093   0.53503   0.80161
C          C       0.04907   0.46497   0.80161
C          C       0.09053   0.52215   0.71691
C          C       0.90947   0.47785   0.71691
C          C       0.90947   0.52215   0.78309
C          C       0.09053   0.47785   0.78309
C          C       0.12386   0.55166   0.67510
C          C       0.87614   0.44834   0.67510
C          C       0.87614   0.55166   0.82490
C          C       0.12386   0.44834   0.82490
C          C       0.50000   0.97590   0.75000
C          C       0.50000   0.02410   0.75000
N          N       0.25055   0.27284   0.97046
N          N       0.74945   0.72716   0.97046
N          N       0.74945   0.27284   0.52954
N          N       0.25055   0.72716   0.52954
N          N       0.02248   0.50000   0.75000
N          N       0.97752   0.50000   0.75000
H          H       0.41459   0.98760   0.62382
H          H       0.58541   0.01240   0.62382
H          H       0.58541   0.98760   0.87618
H          H       0.41459   0.01240   0.87618
