data_crystal

_cell_length_a    38.57280
_cell_length_b    38.57280
_cell_length_c    6.85600
_cell_angle_alpha 90.00000
_cell_angle_beta  90.00000
_cell_angle_gamma 120.00000

_space_group_name_Hall 'P 1'
_space_group_name_H-M_alt 'P 1'

loop_
_symmetry_equiv_pos_as_xyz
 'x,y,z'

loop_
_atom_site_label
_atom_site_type_symbol
_atom_site_fract_x
_atom_site_fract_y
_atom_site_fract_z
C          C       0.30546   0.62293   0.00000
C          C       0.37707   0.68253   0.00000
C          C       0.31747   0.69454   0.00000
C          C       0.34950   0.63826   0.00000
C          C       0.36174   0.71124   0.00000
C          C       0.28876   0.65050   0.00000
O          O       0.30391   0.71703   0.00000
O          O       0.28297   0.58688   0.00000
O          O       0.41312   0.69609   0.00000
C          C       0.38940   0.75121   0.00000
C          C       0.24879   0.63819   0.00000
C          C       0.36181   0.61060   0.00000
N          N       0.38149   0.78397   0.00000
N          N       0.21603   0.59752   0.00000
N          N       0.40248   0.61851   0.00000
N          N       0.41388   0.82359   0.00000
N          N       0.17641   0.59029   0.00000
N          N       0.40971   0.58612   0.00000
C          C       0.40803   0.85596   0.00000
C          C       0.14404   0.55207   0.00000
C          C       0.44793   0.59197   0.00000
C          C       0.44200   0.89824   0.00000
C          C       0.10176   0.54376   0.00000
C          C       0.45624   0.55800   0.00000
C          C       0.48251   0.90835   0.00000
C          C       0.09165   0.57416   0.00000
C          C       0.42584   0.51749   0.00000
C          C       0.51297   0.94835   0.00000
C          C       0.05165   0.56462   0.00000
C          C       0.43538   0.48703   0.00000
C          C       0.50326   0.97894   0.00000
C          C       0.02106   0.52432   0.00000
C          C       0.47568   0.49674   0.00000
N          N       0.46397   0.96854   0.00000
N          N       0.03146   0.49543   0.00000
N          N       0.50457   0.53603   0.00000
C          C       0.43377   0.92989   0.00000
C          C       0.07011   0.50388   0.00000
C          C       0.49612   0.56623   0.00000
C          C       0.48845   0.46620   0.00000
C          C       0.53380   0.02225   0.00000
C          C       0.97775   0.51155   0.00000
N          N       0.52837   0.47916   0.00000
N          N       0.52084   0.04921   0.00000
N          N       0.95079   0.47163   0.00000
C          C       0.54331   0.45388   0.00000
C          C       0.54612   0.08943   0.00000
C          C       0.91057   0.45669   0.00000
C          C       0.51734   0.41212   0.00000
C          C       0.58788   0.10522   0.00000
C          C       0.89478   0.48266   0.00000
C          C       0.47596   0.39816   0.00000
C          C       0.60184   0.07780   0.00000
C          C       0.92220   0.52404   0.00000
C          C       0.46143   0.42479   0.00000
C          C       0.57521   0.03664   0.00000
C          C       0.96336   0.53857   0.00000
C          C       0.53177   0.38260   0.00000
C          C       0.61740   0.14917   0.00000
C          C       0.85083   0.46823   0.00000
N          N       0.57176   0.39413   0.00000
N          N       0.60587   0.17763   0.00000
N          N       0.82237   0.42824   0.00000
N          N       0.58476   0.36586   0.00000
N          N       0.63414   0.21890   0.00000
N          N       0.78110   0.41524   0.00000
C          C       0.62704   0.37966   0.00000
C          C       0.62034   0.24738   0.00000
C          C       0.75262   0.37296   0.00000
C          C       0.64473   0.35653   0.00000
C          C       0.64347   0.28820   0.00000
C          C       0.71180   0.35527   0.00000
C          C       0.62239   0.31181   0.00000
C          C       0.68819   0.31058   0.00000
C          C       0.68942   0.37761   0.00000
O          O       0.70766   0.41403   0.00000
O          O       0.58597   0.29363   0.00000
O          O       0.70637   0.29234   0.00000
O          O       0.37388   0.85015   0.00000
O          O       0.14985   0.52373   0.00000
O          O       0.47627   0.62612   0.00000
O          O       0.50695   0.34696   0.00000
O          O       0.65304   0.15999   0.00000
O          O       0.84001   0.49305   0.00000
H          H       0.42081   0.76003   0.00000
H          H       0.23997   0.66078   0.00000
H          H       0.33922   0.57919   0.00000
H          H       0.44267   0.82769   0.00000
H          H       0.17231   0.61498   0.00000
H          H       0.38502   0.55733   0.00000
H          H       0.49156   0.88608   0.00000
H          H       0.11392   0.60548   0.00000
H          H       0.39452   0.50844   0.00000
H          H       0.54350   0.95453   0.00000
H          H       0.04547   0.58897   0.00000
H          H       0.41103   0.45650   0.00000
H          H       0.40326   0.92404   0.00000
H          H       0.07596   0.47922   0.00000
H          H       0.52078   0.59674   0.00000
H          H       0.57537   0.46716   0.00000
H          H       0.53284   0.10821   0.00000
H          H       0.89179   0.42463   0.00000
H          H       0.45452   0.36639   0.00000
H          H       0.63361   0.08813   0.00000
H          H       0.91187   0.54548   0.00000
H          H       0.59353   0.42430   0.00000
H          H       0.57570   0.16923   0.00000
H          H       0.83077   0.40647   0.00000
H          H       0.64615   0.41188   0.00000
H          H       0.58812   0.23427   0.00000
H          H       0.76573   0.35385   0.00000
H          H       0.98303   0.57057   0.00000
H          H       0.42943   0.41246   0.00000
H          H       0.58754   0.01697   0.00000
H          H       0.35278   0.77980   0.00000
H          H       0.22020   0.57298   0.00000
H          H       0.42702   0.64722   0.00000
H          H       0.56314   0.33578   0.00000
H          H       0.66422   0.22736   0.00000
H          H       0.77264   0.43686   0.00000
C          C       0.30546   0.62293   0.50000
C          C       0.37707   0.68253   0.50000
C          C       0.31747   0.69454   0.50000
C          C       0.34950   0.63826   0.50000
C          C       0.36174   0.71124   0.50000
C          C       0.28876   0.65050   0.50000
O          O       0.30391   0.71703   0.50000
O          O       0.28297   0.58688   0.50000
O          O       0.41312   0.69609   0.50000
C          C       0.38940   0.75121   0.50000
C          C       0.24879   0.63819   0.50000
C          C       0.36181   0.61060   0.50000
N          N       0.38149   0.78397   0.50000
N          N       0.21603   0.59752   0.50000
N          N       0.40248   0.61851   0.50000
N          N       0.41388   0.82359   0.50000
N          N       0.17641   0.59029   0.50000
N          N       0.40971   0.58612   0.50000
C          C       0.40803   0.85596   0.50000
C          C       0.14404   0.55207   0.50000
C          C       0.44793   0.59197   0.50000
C          C       0.44200   0.89824   0.50000
C          C       0.10176   0.54376   0.50000
C          C       0.45624   0.55800   0.50000
C          C       0.48251   0.90835   0.50000
C          C       0.09165   0.57416   0.50000
C          C       0.42584   0.51749   0.50000
C          C       0.51297   0.94835   0.50000
C          C       0.05165   0.56462   0.50000
C          C       0.43538   0.48703   0.50000
C          C       0.50326   0.97894   0.50000
C          C       0.02106   0.52432   0.50000
C          C       0.47568   0.49674   0.50000
N          N       0.46397   0.96854   0.50000
N          N       0.03146   0.49543   0.50000
N          N       0.50457   0.53603   0.50000
C          C       0.43377   0.92989   0.50000
C          C       0.07011   0.50388   0.50000
C          C       0.49612   0.56623   0.50000
C          C       0.48845   0.46620   0.50000
C          C       0.53380   0.02225   0.50000
C          C       0.97775   0.51155   0.50000
N          N       0.52837   0.47916   0.50000
N          N       0.52084   0.04921   0.50000
N          N       0.95079   0.47163   0.50000
C          C       0.54331   0.45388   0.50000
C          C       0.54612   0.08943   0.50000
C          C       0.91057   0.45669   0.50000
C          C       0.51734   0.41212   0.50000
C          C       0.58788   0.10522   0.50000
C          C       0.89478   0.48266   0.50000
C          C       0.47596   0.39816   0.50000
C          C       0.60184   0.07780   0.50000
C          C       0.92220   0.52404   0.50000
C          C       0.46143   0.42479   0.50000
C          C       0.57521   0.03664   0.50000
C          C       0.96336   0.53857   0.50000
C          C       0.53177   0.38260   0.50000
C          C       0.61740   0.14917   0.50000
C          C       0.85083   0.46823   0.50000
N          N       0.57176   0.39413   0.50000
N          N       0.60587   0.17763   0.50000
N          N       0.82237   0.42824   0.50000
N          N       0.58476   0.36586   0.50000
N          N       0.63414   0.21890   0.50000
N          N       0.78110   0.41524   0.50000
C          C       0.62704   0.37966   0.50000
C          C       0.62034   0.24738   0.50000
C          C       0.75262   0.37296   0.50000
C          C       0.64473   0.35653   0.50000
C          C       0.64347   0.28820   0.50000
C          C       0.71180   0.35527   0.50000
C          C       0.62239   0.31181   0.50000
C          C       0.68819   0.31058   0.50000
C          C       0.68942   0.37761   0.50000
O          O       0.70766   0.41403   0.50000
O          O       0.58597   0.29363   0.50000
O          O       0.70637   0.29234   0.50000
O          O       0.37388   0.85015   0.50000
O          O       0.14985   0.52373   0.50000
O          O       0.47627   0.62612   0.50000
O          O       0.50695   0.34696   0.50000
O          O       0.65304   0.15999   0.50000
O          O       0.84001   0.49305   0.50000
H          H       0.42081   0.76003   0.50000
H          H       0.23997   0.66078   0.50000
H          H       0.33922   0.57919   0.50000
H          H       0.44267   0.82769   0.50000
H          H       0.17231   0.61498   0.50000
H          H       0.38502   0.55733   0.50000
H          H       0.49156   0.88608   0.50000
H          H       0.11392   0.60548   0.50000
H          H       0.39452   0.50844   0.50000
H          H       0.54350   0.95453   0.50000
H          H       0.04547   0.58897   0.50000
H          H       0.41103   0.45650   0.50000
H          H       0.40326   0.92404   0.50000
H          H       0.07596   0.47922   0.50000
H          H       0.52078   0.59674   0.50000
H          H       0.57537   0.46716   0.50000
H          H       0.53284   0.10821   0.50000
H          H       0.89179   0.42463   0.50000
H          H       0.45452   0.36639   0.50000
H          H       0.63361   0.08813   0.50000
H          H       0.91187   0.54548   0.50000
H          H       0.59353   0.42430   0.50000
H          H       0.57570   0.16923   0.50000
H          H       0.83077   0.40647   0.50000
H          H       0.64615   0.41188   0.50000
H          H       0.58812   0.23427   0.50000
H          H       0.76573   0.35385   0.50000
H          H       0.98303   0.57057   0.50000
H          H       0.42943   0.41246   0.50000
H          H       0.58754   0.01697   0.50000
H          H       0.35278   0.77980   0.50000
H          H       0.22020   0.57298   0.50000
H          H       0.42702   0.64722   0.50000
H          H       0.56314   0.33578   0.50000
H          H       0.66422   0.22736   0.50000
H          H       0.77264   0.43686   0.50000
