data_crystal

_cell_length_a    26.06020
_cell_length_b    25.73960
_cell_length_c    6.99720
_cell_angle_alpha 89.27030
_cell_angle_beta  89.58350
_cell_angle_gamma 119.89300

_space_group_name_Hall 'P 1'
_space_group_name_H-M_alt 'P 1'

loop_
_symmetry_equiv_pos_as_xyz
 'x,y,z'

loop_
_atom_site_label
_atom_site_type_symbol
_atom_site_fract_x
_atom_site_fract_y
_atom_site_fract_z
C          C       0.05985   0.03985   0.44450
N          N       0.02890   0.97956   0.42563
C          C       0.02967   0.07185   0.46833
H          H       0.05167   0.95732   0.41041
C          C       0.96719   0.04071   0.46305
N          N       0.62279   0.36236   0.41497
C          C       0.59818   0.30225   0.44345
N          N       0.63349   0.27756   0.45085
C          C       0.69288   0.31225   0.42927
N          N       0.71688   0.37194   0.40008
C          C       0.68229   0.39736   0.39306
C          C       0.53359   0.26358   0.46086
C          C       0.73105   0.28541   0.43291
C          C       0.71005   0.46257   0.36479
C          C       0.49609   0.28641   0.41768
C          C       0.43498   0.24929   0.42791
C          C       0.41003   0.18873   0.48414
C          C       0.79059   0.31935   0.37443
C          C       0.82635   0.29347   0.37049
C          C       0.80357   0.23340   0.42813
C          C       0.74428   0.19992   0.49090
C          C       0.70822   0.22553   0.49171
C          C       0.67929   0.49282   0.40864
C          C       0.70804   0.55527   0.39591
C          C       0.76775   0.58831   0.33674
C          C       0.79749   0.55757   0.28563
C          C       0.76916   0.49551   0.30102
C          C       0.79975   0.65457   0.33315
C          C       0.84109   0.20542   0.41881
C          C       0.34504   0.14996   0.49716
C          C       0.85979   0.68670   0.38205
C          C       0.89048   0.74903   0.37807
C          C       0.86132   0.78072   0.32920
C          C       0.80146   0.74873   0.27957
C          C       0.77092   0.68627   0.28121
C          C       0.81610   0.14461   0.37328
C          C       0.85116   0.11802   0.36552
C          C       0.91195   0.15208   0.39948
C          C       0.93753   0.21294   0.43971
C          C       0.90222   0.23929   0.45258
C          C       0.31730   0.08947   0.44413
C          C       0.25559   0.05454   0.44623
C          C       0.22096   0.07988   0.49832
C          C       0.89112   0.84671   0.32762
C          C       0.94188   0.88191   0.41651
C          C       0.96896   0.94758   0.42614
C          C       0.94924   0.12472   0.39027
C          C       0.93281   0.07224   0.47743
C          C       0.15606   0.04451   0.48509
C          C       0.12488   0.07123   0.44128
C          C       0.93639   0.97768   0.44911
C          C       0.87239   0.94489   0.46867
N          N       0.82132   0.91896   0.48460
C          C       0.44758   0.16596   0.52819
C          C       0.50880   0.20298   0.51593
C          C       0.24882   0.13940   0.56034
C          C       0.31006   0.17398   0.55936
C          C       0.06276   0.13483   0.51563
N          N       0.08938   0.18507   0.55319
H          H       0.87052   0.86815   0.24917
H          H       0.96445   0.86091   0.48557
H          H       0.23441   0.00757   0.40732
H          H       0.89219   0.05156   0.56328
H          H       0.84312   0.58257   0.23352
H          H       0.77865   0.77290   0.23941
H          H       0.79297   0.47223   0.26335
H          H       0.93727   0.77336   0.41295
H          H       0.72448   0.66195   0.24201
H          H       0.76901   0.11820   0.34393
H          H       0.83136   0.07066   0.33301
H          H       0.80887   0.36620   0.33192
H          H       0.72646   0.15362   0.53922
H          H       0.63289   0.46753   0.45270
H          H       0.68411   0.57855   0.43199
H          H       0.66213   0.19899   0.53815
H          H       0.99110   0.14747   0.31110
H          H       0.51487   0.33339   0.37596
H          H       0.87229   0.31993   0.32243
H          H       0.14882   0.11862   0.40118
H          H       0.34406   0.06979   0.40125
H          H       0.98506   0.23975   0.46099
H          H       0.53763   0.18485   0.54923
H          H       0.40619   0.26728   0.39206
H          H       0.42881   0.11916   0.57215
H          H       0.88252   0.66255   0.42348
H          H       0.92200   0.28636   0.48897
H          H       0.22212   0.15850   0.60952
H          H       0.33112   0.22010   0.60722
H          H       0.13335   0.99626   0.51119
C          C       0.05985   0.03985   0.94451
N          N       0.02890   0.97956   0.92563
C          C       0.02967   0.07185   0.96832
H          H       0.05167   0.95732   0.91040
C          C       0.96719   0.04071   0.96305
N          N       0.62279   0.36236   0.91497
C          C       0.59818   0.30225   0.94346
N          N       0.63349   0.27756   0.95085
C          C       0.69288   0.31225   0.92927
N          N       0.71688   0.37194   0.90008
C          C       0.68229   0.39736   0.89307
C          C       0.53359   0.26358   0.96086
C          C       0.73105   0.28541   0.93291
C          C       0.71005   0.46257   0.86479
C          C       0.49609   0.28641   0.91768
C          C       0.43498   0.24929   0.92792
C          C       0.41003   0.18873   0.98414
C          C       0.79059   0.31935   0.87443
C          C       0.82635   0.29347   0.87049
C          C       0.80357   0.23340   0.92813
C          C       0.74428   0.19992   0.99090
C          C       0.70822   0.22553   0.99170
C          C       0.67929   0.49282   0.90865
C          C       0.70804   0.55527   0.89591
C          C       0.76775   0.58831   0.83674
C          C       0.79749   0.55757   0.78563
C          C       0.76916   0.49551   0.80102
C          C       0.79975   0.65457   0.83315
C          C       0.84109   0.20542   0.91881
C          C       0.34504   0.14996   0.99716
C          C       0.85979   0.68670   0.88204
C          C       0.89048   0.74903   0.87807
C          C       0.86132   0.78072   0.82920
C          C       0.80146   0.74873   0.77957
C          C       0.77092   0.68627   0.78121
C          C       0.81610   0.14461   0.87328
C          C       0.85116   0.11802   0.86552
C          C       0.91195   0.15208   0.89948
C          C       0.93753   0.21294   0.93971
C          C       0.90222   0.23929   0.95258
C          C       0.31730   0.08947   0.94413
C          C       0.25559   0.05454   0.94623
C          C       0.22096   0.07988   0.99832
C          C       0.89112   0.84671   0.82762
C          C       0.94188   0.88191   0.91651
C          C       0.96896   0.94758   0.92614
C          C       0.94924   0.12472   0.89027
C          C       0.93281   0.07224   0.97743
C          C       0.15606   0.04451   0.98510
C          C       0.12488   0.07123   0.94128
C          C       0.93639   0.97768   0.94910
C          C       0.87239   0.94489   0.96867
N          N       0.82132   0.91896   0.98460
H          H       0.87229   0.31993   0.82243
H          H       0.63289   0.46753   0.95273
H          H       0.68411   0.57855   0.93199
H          H       0.84312   0.58257   0.73352
H          H       0.79297   0.47223   0.76335
H          H       0.93727   0.77336   0.91296
H          H       0.76901   0.11820   0.84393
H          H       0.83136   0.07066   0.83301
H          H       0.14882   0.11862   0.90117
H          H       0.51487   0.33339   0.87596
H          H       0.80887   0.36620   0.83192
H          H       0.40619   0.26728   0.89209
H          H       0.99110   0.14747   0.81110
H          H       0.96445   0.86091   0.98557
H          H       0.88252   0.66255   0.92345
H          H       0.77865   0.77290   0.73941
H          H       0.92200   0.28636   0.98898
H          H       0.87052   0.86815   0.74917
H          H       0.23441   0.00757   0.90732
H          H       0.34406   0.06979   0.90125
H          H       0.72448   0.66195   0.74201
H          H       0.98506   0.23975   0.96099
C          C       0.44758   0.16596   0.02820
C          C       0.50880   0.20298   0.01593
C          C       0.24882   0.13940   0.06033
C          C       0.31006   0.17398   0.05936
C          C       0.06276   0.13483   0.01563
N          N       0.08938   0.18507   0.05319
H          H       0.33112   0.22010   0.10723
H          H       0.53763   0.18485   0.04922
H          H       0.66212   0.19898   0.03813
H          H       0.42881   0.11916   0.07217
H          H       0.22212   0.15850   0.10949
H          H       0.89219   0.05156   0.06328
H          H       0.72646   0.15362   0.03923
H          H       0.13335   0.99626   0.01122
