data_crystal

_cell_length_a    26.21420
_cell_length_b    26.21420
_cell_length_c    6.99120
_cell_angle_alpha 90.00000
_cell_angle_beta  90.00000
_cell_angle_gamma 120.00000

_space_group_name_Hall 'P 1'
_space_group_name_H-M_alt 'P 1'

loop_
_symmetry_equiv_pos_as_xyz
 'x,y,z'

loop_
_atom_site_label
_atom_site_type_symbol
_atom_site_fract_x
_atom_site_fract_y
_atom_site_fract_z
C          C       0.02577   0.96335   0.38103
C          C       0.02577   0.96335   0.88103
C          C       0.05977   0.03375   0.45937
C          C       0.96625   0.02602   0.45937
C          C       0.05977   0.03375   0.95937
C          C       0.96625   0.02602   0.95937
H          H       0.85446   0.00109   0.48962
C          C       0.48980   0.79752   0.00344
C          C       0.20248   0.69228   0.00344
C          C       0.30772   0.51020   0.00344
C          C       0.55107   0.83222   0.01354
C          C       0.16778   0.71885   0.01354
C          C       0.28115   0.44893   0.01354
C          C       0.68744   0.82026   0.02201
C          C       0.17974   0.86718   0.02201
C          C       0.13282   0.31256   0.02201
C          C       0.74874   0.85462   0.02872
C          C       0.14538   0.89412   0.02872
C          C       0.10588   0.25126   0.02872
C          C       0.84120   0.95257   0.00181
C          C       0.04743   0.88863   0.00181
C          C       0.11137   0.15880   0.00181
C          C       0.94201   0.87947   0.02350
C          C       0.12053   0.06254   0.02350
H          H       0.57686   0.72640   0.03847
H          H       0.46827   0.66231   0.01878
H          H       0.14954   0.42314   0.03847
H          H       0.19404   0.53173   0.01878
H          H       0.27360   0.85046   0.03847
H          H       0.33769   0.80596   0.01878
H          H       0.12444   0.69706   0.08031
H          H       0.30294   0.42738   0.08031
H          H       0.57262   0.87556   0.08031
H          H       0.16361   0.93755   0.09354
H          H       0.06245   0.22606   0.09354
H          H       0.77394   0.83639   0.09354
N          N       0.27933   0.63347   0.41497
N          N       0.36653   0.64586   0.41497
N          N       0.35414   0.72067   0.41497
C          C       0.31305   0.60755   0.41626
C          C       0.39245   0.70550   0.41626
C          C       0.29450   0.68695   0.41626
C          C       0.26751   0.72087   0.42643
C          C       0.27913   0.54664   0.42643
C          C       0.45336   0.73249   0.42643
C          C       0.22603   0.50771   0.35501
C          C       0.49229   0.71832   0.35501
C          C       0.28168   0.77397   0.35501
C          C       0.19951   0.44639   0.35179
C          C       0.55361   0.75312   0.35179
C          C       0.24688   0.80049   0.35179
C          C       0.23116   0.41840   0.40657
C          C       0.58160   0.81276   0.40657
C          C       0.18724   0.76884   0.40657
C          C       0.29051   0.45371   0.46092
C          C       0.54629   0.83680   0.46092
C          C       0.16320   0.70949   0.46092
C          C       0.31733   0.51504   0.46044
C          C       0.48496   0.80229   0.46044
C          C       0.19771   0.68267   0.46044
C          C       0.25660   0.80667   0.47759
C          C       0.19333   0.44993   0.47759
C          C       0.55007   0.74340   0.47759
C          C       0.29148   0.78026   0.47814
C          C       0.21974   0.51122   0.47814
C          C       0.48878   0.70852   0.47814
C          C       0.20225   0.35288   0.40982
C          C       0.64712   0.84937   0.40982
C          C       0.15063   0.79775   0.40982
C          C       0.77663   0.91534   0.49283
C          C       0.08466   0.86129   0.49283
C          C       0.13871   0.22337   0.49283
C          C       0.74239   0.94122   0.45148
C          C       0.05878   0.80117   0.45148
C          C       0.19883   0.25761   0.45148
C          C       0.68112   0.90666   0.44000
C          C       0.09334   0.77446   0.44000
C          C       0.22554   0.31888   0.44000
C          C       0.11464   0.25667   0.45431
C          C       0.74333   0.85797   0.45431
C          C       0.14203   0.88536   0.45431
C          C       0.14169   0.31800   0.45015
C          C       0.68200   0.82369   0.45015
C          C       0.17631   0.85831   0.45015
C          C       0.12059   0.16452   0.43752
C          C       0.83548   0.95607   0.43752
C          C       0.04393   0.87941   0.43752
C          C       0.06869   0.12788   0.35590
C          C       0.87212   0.94081   0.35590
C          C       0.05919   0.93131   0.35590
C          C       0.03665   0.06242   0.38103
C          C       0.93758   0.97423   0.38103
C          C       0.07020   0.93837   0.45602
C          C       0.06163   0.13183   0.45602
C          C       0.86817   0.92980   0.45602
C          C       0.97398   0.94023   0.45937
C          C       0.12840   0.05770   0.33766
C          C       0.92930   0.87160   0.33766
N          N       0.17764   0.07951   0.29617
N          N       0.90187   0.82236   0.29617
N          N       0.91615   0.83096   0.07404
N          N       0.16904   0.08519   0.07404
N          N       0.27933   0.63347   0.91497
N          N       0.36653   0.64586   0.91497
N          N       0.35414   0.72067   0.91497
C          C       0.31305   0.60755   0.91626
C          C       0.39245   0.70550   0.91626
C          C       0.29450   0.68695   0.91626
C          C       0.26751   0.72087   0.92643
C          C       0.27913   0.54664   0.92643
C          C       0.45336   0.73249   0.92643
C          C       0.22603   0.50771   0.85501
C          C       0.49229   0.71832   0.85501
C          C       0.28168   0.77397   0.85501
C          C       0.19951   0.44639   0.85179
C          C       0.55361   0.75312   0.85179
C          C       0.24688   0.80049   0.85179
C          C       0.23116   0.41840   0.90657
C          C       0.58160   0.81276   0.90657
C          C       0.18724   0.76884   0.90657
C          C       0.20791   0.68850   0.87371
C          C       0.31150   0.51941   0.87371
C          C       0.48059   0.79209   0.87371
C          C       0.17326   0.71518   0.86992
C          C       0.28482   0.45808   0.86992
C          C       0.54192   0.82674   0.86992
C          C       0.25660   0.80667   0.97759
C          C       0.19333   0.44993   0.97759
C          C       0.55007   0.74340   0.97759
C          C       0.29148   0.78026   0.97814
C          C       0.21974   0.51122   0.97814
C          C       0.48878   0.70852   0.97814
C          C       0.20225   0.35288   0.90981
C          C       0.64712   0.84937   0.90981
C          C       0.15063   0.79775   0.90981
C          C       0.77663   0.91534   0.99282
C          C       0.08466   0.86129   0.99282
C          C       0.13871   0.22337   0.99282
C          C       0.74239   0.94122   0.95148
C          C       0.05878   0.80117   0.95148
C          C       0.19883   0.25761   0.95148
C          C       0.68112   0.90666   0.94000
C          C       0.09334   0.77446   0.94000
C          C       0.22554   0.31888   0.94000
C          C       0.18577   0.86364   0.87161
C          C       0.13636   0.32213   0.87161
C          C       0.67787   0.81423   0.87161
C          C       0.15142   0.89058   0.86563
C          C       0.10942   0.26084   0.86563
C          C       0.73916   0.84858   0.86563
C          C       0.05321   0.88467   0.88635
C          C       0.11533   0.16854   0.88635
C          C       0.83146   0.94679   0.88635
C          C       0.06869   0.12788   0.85590
C          C       0.87212   0.94081   0.85590
C          C       0.05919   0.93131   0.85590
C          C       0.03665   0.06242   0.88103
C          C       0.93758   0.97423   0.88103
C          C       0.07020   0.93837   0.95602
C          C       0.06163   0.13183   0.95602
C          C       0.86817   0.92980   0.95602
C          C       0.97398   0.94023   0.95937
C          C       0.12840   0.05770   0.83766
C          C       0.92930   0.87160   0.83766
N          N       0.17764   0.07951   0.79617
N          N       0.90187   0.82236   0.79617
C          C       0.94201   0.87947   0.52350
C          C       0.12053   0.06254   0.52350
N          N       0.91615   0.83096   0.57403
N          N       0.16904   0.08519   0.57403
H          H       0.26095   0.83893   0.26066
H          H       0.35529   0.54597   0.81256
H          H       0.09192   0.94632   0.24213
H          H       0.45403   0.80931   0.81256
H          H       0.06934   0.72685   0.95890
H          H       0.22494   0.23638   0.92813
H          H       0.65751   0.93066   0.95890
H          H       0.20743   0.52608   0.75577
H          H       0.65468   0.77052   0.80761
H          H       0.47392   0.68135   0.75577
H          H       0.76362   0.98856   0.92813
H          H       0.31865   0.79257   0.75577
H          H       0.01144   0.77506   0.92813
H          H       0.16107   0.42201   0.76066
H          H       0.27315   0.34249   0.95890
H          H       0.57799   0.73905   0.76066
H          H       0.11584   0.34532   0.80761
H          H       0.22948   0.88416   0.80761
H          H       0.20743   0.52608   0.25577
H          H       0.47392   0.68135   0.25577
H          H       0.19404   0.53173   0.51878
H          H       0.33769   0.80596   0.51878
H          H       0.55747   0.87366   0.36500
H          H       0.55908   0.85310   0.60638
H          H       0.31618   0.44253   0.36500
H          H       0.29402   0.44092   0.60638
H          H       0.31865   0.79257   0.25577
H          H       0.57799   0.73905   0.26066
H          H       0.12634   0.68381   0.36500
H          H       0.14690   0.70598   0.60638
H          H       0.14954   0.42314   0.53847
H          H       0.33867   0.53004   0.59900
H          H       0.35063   0.53083   0.34837
H          H       0.57686   0.72640   0.53847
H          H       0.46827   0.66231   0.51878
H          H       0.14663   0.14554   0.48962
H          H       0.22340   0.88430   0.47838
H          H       0.66090   0.77660   0.47838
H          H       0.26095   0.83893   0.76066
H          H       0.19069   0.64471   0.81256
H          H       0.03336   0.14965   0.49438
H          H       0.85035   0.88370   0.49438
H          H       0.11630   0.96664   0.49438
H          H       0.21426   0.09116   0.87565
H          H       0.87691   0.78574   0.87565
H          H       0.85440   0.90808   0.24213
H          H       0.05368   0.14560   0.24213
H          H       0.46996   0.80863   0.59900
H          H       0.46917   0.81980   0.34837
H          H       0.16107   0.42201   0.26066
H          H       0.19137   0.66133   0.59900
H          H       0.18020   0.64937   0.34837
H          H       0.76716   0.83489   0.42187
H          H       0.20568   0.24256   0.31375
H          H       0.22213   0.24814   0.56224
H          H       0.06934   0.72685   0.45889
H          H       0.27360   0.85046   0.53847
H          H       0.13775   0.22122   0.64844
H          H       0.75744   0.96312   0.31375
H          H       0.75186   0.97399   0.56224
H          H       0.06772   0.23283   0.42187
H          H       0.03688   0.79432   0.31375
H          H       0.02601   0.77787   0.56224
H          H       0.11570   0.33910   0.47838
H          H       0.65751   0.93066   0.45889
H          H       0.16511   0.93227   0.42187
H          H       0.27315   0.34249   0.45889
H          H       0.08347   0.86225   0.64844
H          H       0.77878   0.91653   0.64844
C          C       0.93746   0.05799   0.02350
C          C       0.94230   0.07070   0.33766
N          N       0.92049   0.09813   0.29617
N          N       0.91481   0.08385   0.07404
C          C       0.94230   0.07070   0.83766
N          N       0.92049   0.09813   0.79617
C          C       0.93746   0.05799   0.52350
N          N       0.91481   0.08385   0.57403
H          H       0.99891   0.85337   0.48962
H          H       0.90884   0.12309   0.87565
