data_crystal
 
_cell_length_a    16.04390
_cell_length_b    5.26940
_cell_length_c    15.13870
_cell_angle_alpha 90.00000
_cell_angle_beta  86.59910
_cell_angle_gamma 90.00000
 
_symmetry_space_group_name_Hall 'P 1'
_symmetry_space_group_name_H-M  'P 1'
 
loop_
_symmetry_equiv_pos_as_xyz
 'x,y,z' 
 
loop_
_atom_site_label
_atom_site_type_symbol
_atom_site_fract_x
_atom_site_fract_y
_atom_site_fract_z
_atom_site_charge
C          C       0.46801   0.07609   0.26874   0.0000000000
C          C       0.53199   0.07609   0.73126   0.0000000000
C          C       0.39948   0.11824   0.32973   0.0000000000
C          C       0.60052   0.11824   0.67027   0.0000000000
C          C       0.41426   0.13332   0.42064   0.0000000000
C          C       0.58574   0.13332   0.57936   0.0000000000
C          C       0.49362   0.08093   0.45362   0.0000000000
C          C       0.50638   0.08093   0.54638   0.0000000000
C          C       0.55965   0.02835   0.38938   0.0000000000
C          C       0.44035   0.02835   0.61062   0.0000000000
C          C       0.54923   0.03895   0.29729   0.0000000000
C          C       0.45077   0.03895   0.70271   0.0000000000
H          H       0.45870   0.07508   0.20232   0.0000000000
H          H       0.54130   0.07508   0.79767   0.0000000000
H          H       0.36509   0.18161   0.46336   0.0000000000
H          H       0.63491   0.18161   0.53664   0.0000000000
H          H       0.61740  -0.01705   0.40947   0.0000000000
H          H       0.38260  -0.01705   0.59053   0.0000000000
C          C       0.61722   0.02317   0.23409   0.0000000000
C          C       0.38279   0.02317   0.76591   0.0000000000
N          N       0.69487  -0.04508   0.25512   0.0000000000
N          N       0.30513  -0.04508   0.74487   0.0000000000
N          N       0.29453   0.01807   0.22914   0.0000000000
N          N       0.70547   0.01807   0.77086   0.0000000000
C          C       0.31784   0.14363   0.30160   0.0000000000
C          C       0.68216   0.14363   0.69840   0.0000000000
H          H       0.60787   0.06948   0.16968   0.0000000000
H          H       0.39213   0.06948   0.83032   0.0000000000
H          H       0.27524   0.24975   0.33849   0.0000000000
H          H       0.72476   0.24975   0.66151   0.0000000000
C          C       0.00170  -0.02158   0.95235   0.0000000000
C          C       0.99830  -0.02158   0.04765   0.0000000000
C          C       0.07831  -0.02218   0.89987   0.0000000000
C          C       0.09393  -0.20532   0.83237   0.0000000000
C          C       0.16984  -0.20969   0.78084   0.0000000000
C          C       0.23318  -0.03285   0.79621   0.0000000000
C          C       0.21784   0.15388   0.86217   0.0000000000
C          C       0.14116   0.16037   0.91207   0.0000000000
H          H       0.13154   0.30015   0.95783   0.0000000000
H          H       0.04995  -0.33842   0.82009   0.0000000000
H          H       0.17882  -0.34431   0.73246   0.0000000000
H          H       0.26174   0.28871   0.87361   0.0000000000
C          C       0.92169  -0.02218   0.10013   0.0000000000
C          C       0.90608  -0.20532   0.16763   0.0000000000
C          C       0.83016  -0.20969   0.21915   0.0000000000
C          C       0.76682  -0.03285   0.20379   0.0000000000
C          C       0.78216   0.15388   0.13783   0.0000000000
C          C       0.85884   0.16037   0.08793   0.0000000000
H          H       0.86846   0.30015   0.04216   0.0000000000
H          H       0.95005  -0.33842   0.17991   0.0000000000
H          H       0.82118  -0.34431   0.26754   0.0000000000
H          H       0.73826   0.28871   0.12639   0.0000000000
C          C       0.07151  -0.01617   0.09626   0.0000000000
C          C       0.08235   0.17472   0.16046   0.0000000000
C          C       0.15566   0.18976   0.20670   0.0000000000
C          C       0.22096   0.01348   0.18974   0.0000000000
C          C       0.21022  -0.18022   0.12723   0.0000000000
C          C       0.13618  -0.19645   0.08226   0.0000000000
H          H       0.03694   0.30705   0.17369   0.0000000000
H          H       0.16104   0.33218   0.25178   0.0000000000
H          H       0.25626  -0.31181   0.11407   0.0000000000
H          H       0.13005  -0.34032   0.03836   0.0000000000
C          C       0.92849  -0.01617   0.90373   0.0000000000
C          C       0.91765   0.17472   0.83954   0.0000000000
C          C       0.84434   0.18976   0.79330   0.0000000000
C          C       0.77904   0.01348   0.81025   0.0000000000
C          C       0.78978  -0.18022   0.87277   0.0000000000
C          C       0.86382  -0.19645   0.91774   0.0000000000
H          H       0.96306   0.30705   0.82630   0.0000000000
H          H       0.83896   0.33218   0.74821   0.0000000000
H          H       0.74374  -0.31181   0.88593   0.0000000000
H          H       0.86995  -0.34032   0.96163   0.0000000000
