data_BCCTP-COF
_audit_creation_date              0000-00-00
_audit_creation_method            'LanYouShi'
_symmetry_space_group_name_H-M    'P1'
_cell_length_a                    22.8474007
_cell_length_b                    22.8474007
_cell_length_c                    3.5019000
_cell_angle_alpha                 90.0000000
_cell_angle_beta                  90.0000000
_cell_angle_gamma                 120.0000000
loop_
_atom_site_label
_atom_site_type_symbol
_atom_site_fract_x
_atom_site_fract_y
_atom_site_fract_z
_atom_site_U_iso_or_equiv
_atom_site_adp_type
_atom_site_occupancy
        C1          C  0.7405231  0.3702615  0.5000007    0.00000       Uiso       1.00
        C2          C  0.6297401  0.3702615  0.5000007    0.00000       Uiso       1.00
        C3          C  0.6297401  0.2594785  0.5000007    0.00000       Uiso       1.00
        C4          C  0.7014642  0.2985373  0.5000007    0.00000       Uiso       1.00
        C5          C  0.7014642  0.4029270  0.5000007    0.00000       Uiso       1.00
        C6          C  0.5970747  0.2985373  0.5000007    0.00000       Uiso       1.00
        H1          H  0.7267612  0.2732404  0.5000007    0.00000       Uiso       1.00
        H2          H  0.7267612  0.4535208  0.5000007    0.00000       Uiso       1.00
        H3          H  0.5464808  0.2732404  0.5000007    0.00000       Uiso       1.00
        C1          C  0.2594785  0.6297401  0.5000007    0.00000       Uiso       1.00
        C2          C  0.3702615  0.6297401  0.5000007    0.00000       Uiso       1.00
        C3          C  0.3702615  0.7405231  0.5000007    0.00000       Uiso       1.00
        C4          C  0.2985373  0.7014642  0.5000007    0.00000       Uiso       1.00
        C5          C  0.2985373  0.5970747  0.5000007    0.00000       Uiso       1.00
        C6          C  0.4029269  0.7014642  0.5000007    0.00000       Uiso       1.00
        H1          H  0.2732404  0.7267612  0.5000007    0.00000       Uiso       1.00
        H2          H  0.2732404  0.5464809  0.5000007    0.00000       Uiso       1.00
        H3          H  0.4535207  0.7267612  0.5000007    0.00000       Uiso       1.00
        C1          C  0.1863548  0.5931782  0.5000007    0.00000       Uiso       1.00
        C2          C  0.4068234  0.5931782  0.5000007    0.00000       Uiso       1.00
        C3          C  0.4068234  0.8136468  0.5000007    0.00000       Uiso       1.00
        C4          C  0.1467211  0.6253893  0.5000007    0.00000       Uiso       1.00
        C5          C  0.3746123  0.5213334  0.5000007    0.00000       Uiso       1.00
        C6          C  0.4786682  0.8532805  0.5000007    0.00000       Uiso       1.00
        C7          C  0.3746123  0.8532805  0.5000007    0.00000       Uiso       1.00
        C8          C  0.4786682  0.6253893  0.5000007    0.00000       Uiso       1.00
        C9          C  0.1467211  0.5213334  0.5000007    0.00000       Uiso       1.00
       C10          C  0.0755763  0.5898578  0.5000007    0.00000       Uiso       1.00
       C11          C  0.4101439  0.4857201  0.5000007    0.00000       Uiso       1.00
       C12          C  0.5142815  0.9244254  0.5000007    0.00000       Uiso       1.00
       C13          C  0.4101439  0.9244254  0.5000007    0.00000       Uiso       1.00
       C14          C  0.5142815  0.5898578  0.5000007    0.00000       Uiso       1.00
       C15          C  0.0755763  0.4857201  0.5000007    0.00000       Uiso       1.00
       C16          C  0.0363729  0.5181873  0.5000007    0.00000       Uiso       1.00
       C17          C  0.4818143  0.5181873  0.5000007    0.00000       Uiso       1.00
       C18          C  0.4818143  0.9636286  0.5000007    0.00000       Uiso       1.00
       C19          C  0.9636287  0.4818143  0.5000007    0.00000       Uiso       1.00
       C20          C  0.5181873  0.4818143  0.5000007    0.00000       Uiso       1.00
       C21          C  0.5181873  0.0363730  0.5000007    0.00000       Uiso       1.00
       C22          C  0.9244253  0.5142815  0.5000007    0.00000       Uiso       1.00
       C23          C  0.4857202  0.4101438  0.5000007    0.00000       Uiso       1.00
       C24          C  0.5898578  0.0755763  0.5000007    0.00000       Uiso       1.00
       C25          C  0.4857202  0.0755763  0.5000007    0.00000       Uiso       1.00
       C26          C  0.5898578  0.5142815  0.5000007    0.00000       Uiso       1.00
       C27          C  0.9244252  0.4101438  0.5000007    0.00000       Uiso       1.00
       C28          C  0.8532805  0.4786682  0.5000007    0.00000       Uiso       1.00
       C29          C  0.5213334  0.3746123  0.5000007    0.00000       Uiso       1.00
       C30          C  0.6253893  0.1467211  0.5000007    0.00000       Uiso       1.00
       C31          C  0.5213334  0.1467211  0.5000007    0.00000       Uiso       1.00
       C32          C  0.6253893  0.4786682  0.5000007    0.00000       Uiso       1.00
       C33          C  0.8532805  0.3746123  0.5000007    0.00000       Uiso       1.00
       C34          C  0.8136467  0.4068234  0.5000007    0.00000       Uiso       1.00
       C35          C  0.5931782  0.4068234  0.5000007    0.00000       Uiso       1.00
       C36          C  0.5931782  0.1863548  0.5000007    0.00000       Uiso       1.00
        H1          H  0.1679707  0.6765010  0.5000007    0.00000       Uiso       1.00
        H2          H  0.3235006  0.4914713  0.5000007    0.00000       Uiso       1.00
        H3          H  0.5085303  0.8320308  0.5000007    0.00000       Uiso       1.00
        H4          H  0.3235005  0.8320308  0.5000007    0.00000       Uiso       1.00
        H5          H  0.5085303  0.6765010  0.5000007    0.00000       Uiso       1.00
        H6          H  0.1679707  0.4914713  0.5000007    0.00000       Uiso       1.00
        H7          H  0.0536679  0.6191849  0.5000007    0.00000       Uiso       1.00
        H8          H  0.3808167  0.4344846  0.5000007    0.00000       Uiso       1.00
        H9          H  0.5655170  0.9463337  0.5000007    0.00000       Uiso       1.00
       H10          H  0.3808167  0.9463337  0.5000007    0.00000       Uiso       1.00
       H11          H  0.5655170  0.6191849  0.5000007    0.00000       Uiso       1.00
       H12          H  0.0536679  0.4344846  0.5000007    0.00000       Uiso       1.00
       H13          H  0.9463338  0.5655170  0.5000007    0.00000       Uiso       1.00
       H14          H  0.4344846  0.3808168  0.5000007    0.00000       Uiso       1.00
       H15          H  0.6191848  0.0536679  0.5000007    0.00000       Uiso       1.00
       H16          H  0.4344846  0.0536679  0.5000007    0.00000       Uiso       1.00
       H17          H  0.6191849  0.5655170  0.5000007    0.00000       Uiso       1.00
       H18          H  0.9463337  0.3808168  0.5000007    0.00000       Uiso       1.00
       H19          H  0.8320308  0.5085302  0.5000007    0.00000       Uiso       1.00
       H20          H  0.4914714  0.3235005  0.5000007    0.00000       Uiso       1.00
       H21          H  0.6765010  0.1679708  0.5000007    0.00000       Uiso       1.00
       H22          H  0.4914714  0.1679708  0.5000007    0.00000       Uiso       1.00
       H23          H  0.6765010  0.5085302  0.5000007    0.00000       Uiso       1.00
       H24          H  0.8320308  0.3235005  0.5000007    0.00000       Uiso       1.00
