data_crystal

_cell_length_a    37.31000
_cell_length_b    37.31000
_cell_length_c    7.08000
_cell_angle_alpha 90.00000
_cell_angle_beta  90.00000
_cell_angle_gamma 120.00000

_symmetry_space_group_name_Hall 'P 1'
_symmetry_space_group_name_H-M  'P 1'

loop_
_symmetry_equiv_pos_as_xyz
 'x,y,z'

loop_
_atom_site_label
_atom_site_type_symbol
_atom_site_fract_x
_atom_site_fract_y
_atom_site_fract_z
C          C       0.97204   0.51350   0.28854
C          C       0.48650   0.45854   0.28854
C          C       0.54146   0.02796   0.28854
C          C       0.02796   0.48650   0.21146
C          C       0.51350   0.54146   0.21146
C          C       0.45854   0.97204   0.21146
C          C       0.95705   0.47113   0.25731
C          C       0.52887   0.48592   0.25731
C          C       0.51408   0.04295   0.25731
C          C       0.04295   0.52887   0.24269
C          C       0.47113   0.51408   0.24269
C          C       0.48592   0.95705   0.24269
C          C       0.98561   0.45780   0.21849
C          C       0.54220   0.52781   0.21849
C          C       0.47219   0.01439   0.21849
C          C       0.01439   0.54220   0.28151
C          C       0.45780   0.47219   0.28151
C          C       0.52781   0.98561   0.28151
C          C       0.91200   0.44135   0.26484
C          C       0.55865   0.47065   0.26484
C          C       0.52935   0.08800   0.26484
C          C       0.08800   0.55865   0.23516
C          C       0.44135   0.52935   0.23516
C          C       0.47065   0.91200   0.23516
N          N       0.88600   0.45373   0.30647
N          N       0.54627   0.43227   0.30647
N          N       0.56773   0.11400   0.30647
N          N       0.11400   0.54627   0.19353
N          N       0.45373   0.56773   0.19353
N          N       0.43227   0.88600   0.19353
C          C       0.81799   0.44764   0.31733
C          C       0.55236   0.37035   0.31733
C          C       0.62965   0.18201   0.31733
C          C       0.18201   0.55236   0.18267
C          C       0.44764   0.62965   0.18267
C          C       0.37035   0.81799   0.18267
C          C       0.84178   0.42822   0.31880
C          C       0.57178   0.41356   0.31880
C          C       0.58644   0.15822   0.31880
C          C       0.15822   0.57178   0.18121
C          C       0.42822   0.58644   0.18121
C          C       0.41356   0.84178   0.18121
C          C       0.82171   0.38485   0.33548
C          C       0.61515   0.43686   0.33548
C          C       0.56314   0.17829   0.33548
C          C       0.17829   0.61515   0.16452
C          C       0.38485   0.56314   0.16452
C          C       0.43686   0.82171   0.16452
C          C       0.77856   0.36153   0.34435
C          C       0.63847   0.41703   0.34435
C          C       0.58297   0.22144   0.34435
C          C       0.22144   0.63847   0.15565
C          C       0.36153   0.58297   0.15565
C          C       0.41703   0.77856   0.15565
C          C       0.75460   0.38098   0.33842
C          C       0.61902   0.37362   0.33842
C          C       0.62638   0.24540   0.33842
C          C       0.24540   0.61902   0.16158
C          C       0.38098   0.62638   0.16158
C          C       0.37362   0.75460   0.16158
C          C       0.77486   0.42437   0.32634
C          C       0.57563   0.35049   0.32634
C          C       0.64951   0.22514   0.32634
C          C       0.22514   0.57563   0.17366
C          C       0.42437   0.64951   0.17366
C          C       0.35049   0.77486   0.17366
N          N       0.68582   0.37515   0.34260
N          N       0.62485   0.31067   0.34260
N          N       0.68933   0.31418   0.34260
N          N       0.31418   0.62485   0.15740
N          N       0.37515   0.68933   0.15740
N          N       0.31067   0.68582   0.15740
C          C       0.70881   0.35617   0.34275
C          C       0.64383   0.35264   0.34275
C          C       0.64736   0.29119   0.34275
C          C       0.29119   0.64383   0.15725
C          C       0.35617   0.64736   0.15725
C          C       0.35264   0.70881   0.15725
Br         Br      0.96893   0.40075   0.17567
Br         Br      0.59925   0.56818   0.17567
Br         Br      0.43182   0.03107   0.17567
Br         Br      0.03107   0.59925   0.32433
Br         Br      0.40075   0.43182   0.32433
Br         Br      0.56818   0.96893   0.32433
H          H       0.95080   0.52460   0.31847
H          H       0.47540   0.42620   0.31847
H          H       0.57380   0.04920   0.31847
H          H       0.04920   0.47540   0.18153
H          H       0.52460   0.57380   0.18153
H          H       0.42620   0.95080   0.18153
H          H       0.90085   0.40934   0.23020
H          H       0.59066   0.49151   0.23020
H          H       0.50849   0.09915   0.23020
H          H       0.09915   0.59066   0.26980
H          H       0.40934   0.50849   0.26980
H          H       0.49151   0.90085   0.26980
H          H       0.83300   0.48101   0.30677
H          H       0.51899   0.35199   0.30677
H          H       0.64801   0.16700   0.30677
H          H       0.16700   0.51899   0.19323
H          H       0.48101   0.64801   0.19323
H          H       0.35199   0.83300   0.19323
H          H       0.83892   0.36869   0.34409
H          H       0.63131   0.47023   0.34409
H          H       0.52977   0.16108   0.34409
H          H       0.16108   0.63131   0.15591
H          H       0.36869   0.52977   0.15591
H          H       0.47023   0.83892   0.15591
H          H       0.76401   0.32821   0.35608
H          H       0.67179   0.43580   0.35608
H          H       0.56420   0.23599   0.35608
H          H       0.23599   0.67179   0.14392
H          H       0.32821   0.56420   0.14392
H          H       0.43580   0.76401   0.14392
H          H       0.75744   0.44044   0.32233
H          H       0.55956   0.31700   0.32233
H          H       0.68300   0.24256   0.32233
H          H       0.24256   0.55956   0.17767
H          H       0.44044   0.68300   0.17767
H          H       0.31700   0.75744   0.17767
C          C       0.97204   0.51350   0.78854
C          C       0.48650   0.45854   0.78854
C          C       0.54146   0.02796   0.78854
C          C       0.02796   0.48650   0.71146
C          C       0.51350   0.54146   0.71146
C          C       0.45854   0.97204   0.71146
C          C       0.95705   0.47113   0.75731
C          C       0.52887   0.48592   0.75731
C          C       0.51408   0.04295   0.75731
C          C       0.04295   0.52887   0.74269
C          C       0.47113   0.51408   0.74269
C          C       0.48592   0.95705   0.74269
C          C       0.98561   0.45780   0.71849
C          C       0.54220   0.52781   0.71849
C          C       0.47219   0.01439   0.71849
C          C       0.01439   0.54220   0.78151
C          C       0.45780   0.47219   0.78151
C          C       0.52781   0.98561   0.78151
C          C       0.91200   0.44135   0.76484
C          C       0.55865   0.47065   0.76484
C          C       0.52935   0.08800   0.76484
C          C       0.08800   0.55865   0.73516
C          C       0.44135   0.52935   0.73516
C          C       0.47065   0.91200   0.73516
N          N       0.88600   0.45373   0.80647
N          N       0.54627   0.43227   0.80647
N          N       0.56773   0.11400   0.80647
N          N       0.11400   0.54627   0.69353
N          N       0.45373   0.56773   0.69353
N          N       0.43227   0.88600   0.69353
C          C       0.81799   0.44764   0.81733
C          C       0.55236   0.37035   0.81733
C          C       0.62965   0.18201   0.81733
C          C       0.18201   0.55236   0.68267
C          C       0.44764   0.62965   0.68267
C          C       0.37035   0.81799   0.68267
C          C       0.84178   0.42822   0.81880
C          C       0.57178   0.41356   0.81880
C          C       0.58644   0.15822   0.81880
C          C       0.15822   0.57178   0.68120
C          C       0.42822   0.58644   0.68120
C          C       0.41356   0.84178   0.68120
C          C       0.82171   0.38485   0.83548
C          C       0.61515   0.43686   0.83548
C          C       0.56314   0.17829   0.83548
C          C       0.17829   0.61515   0.66451
C          C       0.38485   0.56314   0.66451
C          C       0.43686   0.82171   0.66451
C          C       0.77856   0.36153   0.84435
C          C       0.63847   0.41703   0.84435
C          C       0.58297   0.22144   0.84435
C          C       0.22144   0.63847   0.65565
C          C       0.36153   0.58297   0.65565
C          C       0.41703   0.77856   0.65565
C          C       0.75460   0.38098   0.83842
C          C       0.61902   0.37362   0.83842
C          C       0.62638   0.24540   0.83842
C          C       0.24540   0.61902   0.66158
C          C       0.38098   0.62638   0.66158
C          C       0.37362   0.75460   0.66158
C          C       0.77486   0.42437   0.82634
C          C       0.57563   0.35049   0.82634
C          C       0.64951   0.22514   0.82634
C          C       0.22514   0.57563   0.67366
C          C       0.42437   0.64951   0.67366
C          C       0.35049   0.77486   0.67366
N          N       0.68582   0.37515   0.84260
N          N       0.62485   0.31067   0.84260
N          N       0.68933   0.31418   0.84260
N          N       0.31418   0.62485   0.65740
N          N       0.37515   0.68933   0.65740
N          N       0.31067   0.68582   0.65740
C          C       0.70881   0.35617   0.84276
C          C       0.64383   0.35264   0.84276
C          C       0.64736   0.29119   0.84276
C          C       0.29119   0.64383   0.65725
C          C       0.35617   0.64736   0.65725
C          C       0.35264   0.70881   0.65725
Br         Br      0.96893   0.40075   0.67567
Br         Br      0.59925   0.56818   0.67567
Br         Br      0.43182   0.03107   0.67567
Br         Br      0.03107   0.59925   0.82433
Br         Br      0.40075   0.43182   0.82433
Br         Br      0.56818   0.96893   0.82433
H          H       0.95080   0.52460   0.81847
H          H       0.47540   0.42620   0.81847
H          H       0.57380   0.04920   0.81847
H          H       0.04920   0.47540   0.68153
H          H       0.52460   0.57380   0.68153
H          H       0.42620   0.95080   0.68153
H          H       0.90085   0.40934   0.73020
H          H       0.59066   0.49151   0.73020
H          H       0.50849   0.09915   0.73020
H          H       0.09915   0.59066   0.76980
H          H       0.40934   0.50849   0.76980
H          H       0.49151   0.90085   0.76980
H          H       0.83300   0.48101   0.80677
H          H       0.51899   0.35199   0.80677
H          H       0.64801   0.16700   0.80677
H          H       0.16700   0.51899   0.69323
H          H       0.48101   0.64801   0.69323
H          H       0.35199   0.83300   0.69323
H          H       0.83892   0.36869   0.84409
H          H       0.63131   0.47023   0.84409
H          H       0.52977   0.16108   0.84409
H          H       0.16108   0.63131   0.65591
H          H       0.36869   0.52977   0.65591
H          H       0.47023   0.83892   0.65591
H          H       0.76401   0.32821   0.85608
H          H       0.67179   0.43580   0.85608
H          H       0.56420   0.23599   0.85608
H          H       0.23599   0.67179   0.64392
H          H       0.32821   0.56420   0.64392
H          H       0.43580   0.76401   0.64392
H          H       0.75744   0.44044   0.82233
H          H       0.55956   0.31700   0.82233
H          H       0.68300   0.24256   0.82233
H          H       0.24256   0.55956   0.67766
H          H       0.44044   0.68300   0.67766
H          H       0.31700   0.75744   0.67766
