data_crystal

_cell_length_a    37.67000
_cell_length_b    37.67000
_cell_length_c    7.42000
_cell_angle_alpha 90.00000
_cell_angle_beta  90.00000
_cell_angle_gamma 120.00000

_space_group_name_Hall 'P 1'
_space_group_name_H-M_alt  'P 1'

loop_
_symmetry_equiv_pos_as_xyz
'x,y,z'

loop_
_atom_site_label
_atom_site_type_symbol
_atom_site_fract_x
_atom_site_fract_y
_atom_site_fract_z
C          C       0.31345   0.62391   0.20879
C          C       0.37609   0.68954   0.20879
C          C       0.31046   0.68655   0.20879
C          C       0.68655   0.37609   0.20879
C          C       0.62391   0.31046   0.20879
C          C       0.68954   0.31345   0.20879
C          C       0.28994   0.64346   0.20898
C          C       0.35654   0.64648   0.20898
C          C       0.35352   0.71006   0.20898
C          C       0.71006   0.35654   0.20898
C          C       0.64346   0.35352   0.20898
C          C       0.64648   0.28994   0.20898
C          C       0.22078   0.63455   0.29093
C          C       0.36545   0.58623   0.29093
C          C       0.41377   0.77922   0.29093
C          C       0.77922   0.36545   0.29093
C          C       0.63455   0.41377   0.29093
C          C       0.58623   0.22078   0.29093
C          C       0.24409   0.61894   0.21068
C          C       0.38106   0.62515   0.21068
C          C       0.37485   0.75591   0.21068
C          C       0.75591   0.38106   0.21068
C          C       0.61894   0.37485   0.21068
C          C       0.62515   0.24409   0.21068
C          C       0.22302   0.57949   0.13348
C          C       0.42051   0.64353   0.13348
C          C       0.35647   0.77698   0.13348
C          C       0.77698   0.42051   0.13348
C          C       0.57949   0.35647   0.13348
C          C       0.64353   0.22302   0.13348
C          C       0.18027   0.55642   0.13817
C          C       0.44358   0.62385   0.13817
C          C       0.37615   0.81973   0.13817
C          C       0.81973   0.44358   0.13817
C          C       0.55642   0.37615   0.13817
C          C       0.62385   0.18027   0.13817
C          C       0.15731   0.57238   0.21494
C          C       0.42762   0.58493   0.21494
C          C       0.41507   0.84269   0.21494
C          C       0.84269   0.42762   0.21494
C          C       0.57238   0.41507   0.21494
C          C       0.58493   0.15731   0.21494
C          C       0.17798   0.61177   0.29199
C          C       0.38823   0.56621   0.29199
C          C       0.43379   0.82202   0.29199
C          C       0.82202   0.38823   0.29199
C          C       0.61177   0.43379   0.29199
C          C       0.56621   0.17798   0.29199
C          C       0.08707   0.55874   0.25318
C          C       0.44126   0.52833   0.25318
C          C       0.47167   0.91293   0.25318
C          C       0.91293   0.44126   0.25318
C          C       0.55874   0.47167   0.25318
C          C       0.52833   0.08707   0.25318
N          N       0.11342   0.54708   0.21614
N          N       0.45292   0.56634   0.21614
N          N       0.43366   0.88658   0.21614
N          N       0.88658   0.45292   0.21614
N          N       0.54708   0.43366   0.21614
N          N       0.56634   0.11342   0.21614
C          C       0.02821   0.48778   0.20477
C          C       0.51222   0.54043   0.20477
C          C       0.45957   0.97179   0.20477
C          C       0.97179   0.51222   0.20477
C          C       0.48778   0.45957   0.20477
C          C       0.54043   0.02821   0.20477
C          C       0.04249   0.52890   0.25188
C          C       0.47110   0.51359   0.25188
C          C       0.48641   0.95751   0.25188
C          C       0.95751   0.47110   0.25188
C          C       0.52890   0.48641   0.25188
C          C       0.51359   0.04249   0.25188
C          C       0.01369   0.54093   0.29746
C          C       0.45907   0.47276   0.29746
C          C       0.52724   0.98631   0.29746
C          C       0.98631   0.45907   0.29746
C          C       0.54093   0.52724   0.29746
C          C       0.47276   0.01369   0.29746
Br         Br      0.02944   0.59614   0.36401
Br         Br      0.40386   0.43330   0.36401
Br         Br      0.56670   0.97056   0.36401
Br         Br      0.97056   0.40386   0.36401
Br         Br      0.59614   0.56670   0.36401
Br         Br      0.43330   0.02944   0.36401
H          H       0.23733   0.66624   0.35557
H          H       0.33376   0.57109   0.35557
H          H       0.42891   0.76267   0.35557
H          H       0.76267   0.33376   0.35557
H          H       0.66624   0.42891   0.35557
H          H       0.57109   0.23733   0.35557
H          H       0.24088   0.56604   0.06616
H          H       0.43396   0.67484   0.06616
H          H       0.32516   0.75912   0.06616
H          H       0.75912   0.43396   0.06616
H          H       0.56604   0.32516   0.06616
H          H       0.67484   0.24088   0.06616
H          H       0.16412   0.52423   0.07841
H          H       0.47577   0.63989   0.07841
H          H       0.36011   0.83588   0.07841
H          H       0.83588   0.47577   0.07841
H          H       0.52423   0.36011   0.07841
H          H       0.63989   0.16412   0.07841
H          H       0.15961   0.62508   0.35553
H          H       0.37492   0.53453   0.35553
H          H       0.46547   0.84039   0.35553
H          H       0.84039   0.37492   0.35553
H          H       0.62508   0.46547   0.35553
H          H       0.53453   0.15961   0.35553
H          H       0.09818   0.59219   0.28709
H          H       0.40781   0.50599   0.28709
H          H       0.49401   0.90182   0.28709
H          H       0.90182   0.40781   0.28709
H          H       0.59219   0.49401   0.28709
H          H       0.50599   0.09818   0.28709
H          H       0.29760   0.58902   0.20994
H          H       0.41098   0.70858   0.20994
H          H       0.29142   0.70240   0.20994
H          H       0.70240   0.41098   0.20994
H          H       0.58902   0.29142   0.20994
H          H       0.70858   0.29760   0.20994
H          H       0.04683   0.47553   0.17424
H          H       0.52447   0.57130   0.17424
H          H       0.42870   0.95317   0.17424
H          H       0.95317   0.52447   0.17424
H          H       0.47553   0.42870   0.17424
H          H       0.57130   0.04683   0.17424
C          C       0.31345   0.62391   0.70879
C          C       0.37609   0.68954   0.70879
C          C       0.31046   0.68655   0.70879
C          C       0.68655   0.37609   0.70879
C          C       0.62391   0.31046   0.70879
C          C       0.68954   0.31345   0.70879
C          C       0.28994   0.64346   0.70898
C          C       0.35654   0.64648   0.70898
C          C       0.35352   0.71006   0.70898
C          C       0.71006   0.35654   0.70898
C          C       0.64346   0.35352   0.70898
C          C       0.64648   0.28994   0.70898
C          C       0.22078   0.63455   0.79093
C          C       0.36545   0.58623   0.79093
C          C       0.41377   0.77922   0.79093
C          C       0.77922   0.36545   0.79093
C          C       0.63455   0.41377   0.79093
C          C       0.58623   0.22078   0.79093
C          C       0.24409   0.61894   0.71068
C          C       0.38106   0.62515   0.71068
C          C       0.37485   0.75591   0.71068
C          C       0.75591   0.38106   0.71068
C          C       0.61894   0.37485   0.71068
C          C       0.62515   0.24409   0.71068
C          C       0.22302   0.57949   0.63348
C          C       0.42051   0.64353   0.63348
C          C       0.35647   0.77698   0.63348
C          C       0.77698   0.42051   0.63348
C          C       0.57949   0.35647   0.63348
C          C       0.64353   0.22302   0.63348
C          C       0.18027   0.55642   0.63816
C          C       0.44358   0.62385   0.63816
C          C       0.37615   0.81973   0.63816
C          C       0.81973   0.44358   0.63816
C          C       0.55642   0.37615   0.63816
C          C       0.62385   0.18027   0.63816
C          C       0.15731   0.57238   0.71494
C          C       0.42762   0.58493   0.71494
C          C       0.41507   0.84269   0.71494
C          C       0.84269   0.42762   0.71494
C          C       0.57238   0.41507   0.71494
C          C       0.58493   0.15731   0.71494
C          C       0.17798   0.61177   0.79199
C          C       0.38823   0.56621   0.79199
C          C       0.43379   0.82202   0.79199
C          C       0.82202   0.38823   0.79199
C          C       0.61177   0.43379   0.79199
C          C       0.56621   0.17798   0.79199
C          C       0.08707   0.55874   0.75318
C          C       0.44126   0.52833   0.75318
C          C       0.47167   0.91293   0.75318
C          C       0.91293   0.44126   0.75318
C          C       0.55874   0.47167   0.75318
C          C       0.52833   0.08707   0.75318
N          N       0.11342   0.54708   0.71614
N          N       0.45292   0.56634   0.71614
N          N       0.43366   0.88658   0.71614
N          N       0.88658   0.45292   0.71614
N          N       0.54708   0.43366   0.71614
N          N       0.56634   0.11342   0.71614
C          C       0.02821   0.48778   0.70477
C          C       0.51222   0.54043   0.70477
C          C       0.45957   0.97179   0.70477
C          C       0.97179   0.51222   0.70477
C          C       0.48778   0.45957   0.70477
C          C       0.54043   0.02821   0.70477
C          C       0.04249   0.52890   0.75187
C          C       0.47110   0.51359   0.75187
C          C       0.48641   0.95751   0.75187
C          C       0.95751   0.47110   0.75187
C          C       0.52890   0.48641   0.75187
C          C       0.51359   0.04249   0.75187
C          C       0.01369   0.54093   0.79746
C          C       0.45907   0.47276   0.79746
C          C       0.52724   0.98631   0.79746
C          C       0.98631   0.45907   0.79746
C          C       0.54093   0.52724   0.79746
C          C       0.47276   0.01369   0.79746
Br         Br      0.02944   0.59614   0.86401
Br         Br      0.40386   0.43330   0.86401
Br         Br      0.56670   0.97056   0.86401
Br         Br      0.97056   0.40386   0.86401
Br         Br      0.59614   0.56670   0.86401
Br         Br      0.43330   0.02944   0.86401
H          H       0.23733   0.66624   0.85557
H          H       0.33376   0.57109   0.85557
H          H       0.42891   0.76267   0.85557
H          H       0.76267   0.33376   0.85557
H          H       0.66624   0.42891   0.85557
H          H       0.57109   0.23733   0.85557
H          H       0.24088   0.56604   0.56616
H          H       0.43396   0.67484   0.56616
H          H       0.32516   0.75912   0.56616
H          H       0.75912   0.43396   0.56616
H          H       0.56604   0.32516   0.56616
H          H       0.67484   0.24088   0.56616
H          H       0.16412   0.52423   0.57840
H          H       0.47577   0.63989   0.57840
H          H       0.36011   0.83588   0.57840
H          H       0.83588   0.47577   0.57840
H          H       0.52423   0.36011   0.57840
H          H       0.63989   0.16412   0.57840
H          H       0.15961   0.62508   0.85553
H          H       0.37492   0.53453   0.85553
H          H       0.46547   0.84039   0.85553
H          H       0.84039   0.37492   0.85553
H          H       0.62508   0.46547   0.85553
H          H       0.53453   0.15961   0.85553
H          H       0.09818   0.59219   0.78709
H          H       0.40781   0.50599   0.78709
H          H       0.49401   0.90182   0.78709
H          H       0.90182   0.40781   0.78709
H          H       0.59219   0.49401   0.78709
H          H       0.50599   0.09818   0.78709
H          H       0.29760   0.58902   0.70994
H          H       0.41098   0.70858   0.70994
H          H       0.29142   0.70240   0.70994
H          H       0.70240   0.41098   0.70994
H          H       0.58902   0.29142   0.70994
H          H       0.70858   0.29760   0.70994
H          H       0.04683   0.47553   0.67424
H          H       0.52447   0.57130   0.67424
H          H       0.42870   0.95317   0.67424
H          H       0.95317   0.52447   0.67424
H          H       0.47553   0.42870   0.67424
H          H       0.57130   0.04683   0.67424
