data_crystal

_cell_length_a    36.71320
_cell_length_b    36.71320
_cell_length_c    7.75860
_cell_angle_alpha 90.00000
_cell_angle_beta  90.00000
_cell_angle_gamma 120.00000

_space_group_name_Hall 'P 1'
_space_group_name_H-M_alt  'P 1'

loop_
_symmetry_equiv_pos_as_xyz
 'x,y,z'

loop_
_atom_site_label
_atom_site_type_symbol
_atom_site_fract_x
_atom_site_fract_y
_atom_site_fract_z
C          C       0.28995   0.64035   0.16586
C          C       0.35965   0.64960   0.16586
C          C       0.35040   0.71005   0.16586
C          C       0.31644   0.62370   0.16561
C          C       0.37630   0.69274   0.16561
C          C       0.30726   0.68356   0.16561
C          C       0.24404   0.61254   0.17139
C          C       0.38746   0.63150   0.17139
C          C       0.36850   0.75596   0.17139
C          C       0.37615   0.59338   0.09125
C          C       0.40662   0.78277   0.09125
C          C       0.21723   0.62385   0.09125
C          C       0.40168   0.57610   0.09957
C          C       0.42390   0.82558   0.09957
C          C       0.17442   0.59832   0.09957
C          C       0.43949   0.59653   0.19077
C          C       0.40347   0.84296   0.19077
C          C       0.15704   0.56051   0.19077
C          C       0.45134   0.63516   0.26787
C          C       0.36484   0.81618   0.26787
C          C       0.18382   0.54866   0.26787
C          C       0.42565   0.65216   0.25904
C          C       0.34784   0.77349   0.25904
C          C       0.22651   0.57435   0.25904
N          N       0.46762   0.58152   0.20578
N          N       0.41848   0.88610   0.20578
N          N       0.11390   0.53238   0.20578
C          C       0.45379   0.54178   0.19784
C          C       0.45822   0.91201   0.19784
C          C       0.08799   0.54621   0.19784
C          C       0.48129   0.52443   0.22107
C          C       0.47557   0.95686   0.22107
C          C       0.04314   0.51871   0.22107
C          C       0.46481   0.48116   0.20625
C          C       0.51884   0.98365   0.20625
C          C       0.01635   0.53519   0.20625
C          C       0.48891   0.46307   0.23661
C          C       0.53693   0.02584   0.23661
C          C       0.97416   0.51109   0.23661
C          C       0.71032   0.35748   0.32802
C          C       0.64252   0.35284   0.32802
C          C       0.64716   0.28968   0.32802
C          C       0.68596   0.37653   0.32810
C          C       0.62347   0.30943   0.32810
C          C       0.69057   0.31404   0.32810
C          C       0.75650   0.38309   0.32536
C          C       0.61691   0.37341   0.32536
C          C       0.62659   0.24350   0.32536
C          C       0.63156   0.41212   0.24463
C          C       0.58788   0.21944   0.24463
C          C       0.78056   0.36844   0.24463
C          C       0.60759   0.43113   0.23902
C          C       0.56887   0.17646   0.23902
C          C       0.82354   0.39241   0.23902
C          C       0.56783   0.41169   0.31422
C          C       0.58831   0.15614   0.31422
C          C       0.84386   0.43217   0.31422
C          C       0.55278   0.37277   0.39377
C          C       0.62723   0.18001   0.39377
C          C       0.81999   0.44722   0.39377
C          C       0.57718   0.35426   0.40056
C          C       0.64574   0.22292   0.40056
C          C       0.77708   0.42282   0.40056
N          N       0.54112   0.42844   0.30020
N          N       0.57156   0.11268   0.30020
N          N       0.88732   0.45888   0.30020
C          C       0.55690   0.46841   0.31315
C          C       0.53159   0.08849   0.31315
C          C       0.91151   0.44310   0.31315
C          C       0.53084   0.48730   0.28619
C          C       0.51270   0.04354   0.28619
C          C       0.95646   0.46916   0.28619
C          C       0.54774   0.53053   0.30261
C          C       0.46947   0.01721   0.30261
C          C       0.98279   0.45226   0.30261
C          C       0.52337   0.54903   0.26938
C          C       0.45097   0.97434   0.26938
C          C       0.02566   0.47663   0.26938
H          H       0.30317   0.58990   0.16650
H          H       0.41010   0.71327   0.16650
H          H       0.28673   0.69683   0.16650
H          H       0.34697   0.57720   0.01806
H          H       0.42280   0.76977   0.01806
H          H       0.23023   0.65303   0.01806
H          H       0.39242   0.54676   0.03210
H          H       0.45324   0.84566   0.03210
H          H       0.15434   0.60758   0.03210
H          H       0.48071   0.65124   0.33957
H          H       0.34876   0.82947   0.33957
H          H       0.17053   0.51929   0.33957
H          H       0.43505   0.68183   0.32394
H          H       0.31817   0.75322   0.32394
H          H       0.24678   0.56495   0.32394
H          H       0.42000   0.51830   0.17991
H          H       0.48170   0.90170   0.17991
H          H       0.09830   0.58000   0.17991
H          H       0.43210   0.46171   0.16923
H          H       0.53829   0.97039   0.16923
H          H       0.02961   0.56790   0.16923
H          H       0.47579   0.42947   0.22284
H          H       0.57053   0.04632   0.22284
H          H       0.95368   0.52421   0.22284
H          H       0.70115   0.41052   0.32753
H          H       0.58948   0.29063   0.32753
H          H       0.70937   0.29885   0.32753
H          H       0.66210   0.42732   0.18142
H          H       0.57268   0.23478   0.18142
H          H       0.76522   0.33790   0.18142
H          H       0.61923   0.46084   0.17103
H          H       0.53916   0.15839   0.17103
H          H       0.84161   0.38077   0.17103
H          H       0.52196   0.35754   0.45415
H          H       0.64246   0.16442   0.45415
H          H       0.83558   0.47804   0.45415
H          H       0.56521   0.32429   0.46663
H          H       0.67571   0.24092   0.46663
H          H       0.75908   0.43479   0.46663
H          H       0.59038   0.48998   0.34456
H          H       0.51002   0.10040   0.34456
H          H       0.89960   0.40962   0.34456
O          O       0.96463   0.41087   0.35550
O          O       0.58913   0.55376   0.35550
O          O       0.44624   0.03537   0.35550
C          C       0.99045   0.39245   0.33185
C          C       0.60755   0.59800   0.33185
C          C       0.40200   0.00955   0.33185
C          C       0.03529   0.42288   0.38476
C          C       0.57712   0.61241   0.38476
C          C       0.38759   0.96471   0.38476
O          O       0.05173   0.45994   0.27966
O          O       0.54006   0.59179   0.27966
O          O       0.40821   0.94827   0.27966
H          H       0.98890   0.38275   0.19329
H          H       0.61725   0.60615   0.19329
H          H       0.39385   0.01110   0.19329
H          H       0.97700   0.36392   0.41281
H          H       0.63608   0.61308   0.41281
H          H       0.38692   0.02300   0.41281
H          H       0.05539   0.40914   0.36305
H          H       0.59086   0.64625   0.36305
H          H       0.35375   0.94461   0.36305
H          H       0.03735   0.43160   0.02460
H          H       0.56840   0.60575   0.02460
H          H       0.39425   0.96265   0.02460
C          C       0.28995   0.64035   0.66586
C          C       0.35965   0.64960   0.66586
C          C       0.35040   0.71005   0.66586
C          C       0.31644   0.62370   0.66561
C          C       0.37630   0.69274   0.66561
C          C       0.30726   0.68356   0.66561
C          C       0.24404   0.61254   0.67139
C          C       0.38746   0.63150   0.67139
C          C       0.36850   0.75596   0.67139
C          C       0.37615   0.59338   0.59124
C          C       0.40662   0.78277   0.59124
C          C       0.21723   0.62385   0.59124
C          C       0.40168   0.57610   0.59957
C          C       0.42390   0.82558   0.59957
C          C       0.17442   0.59832   0.59957
C          C       0.43949   0.59653   0.69077
C          C       0.40347   0.84296   0.69077
C          C       0.15704   0.56051   0.69077
C          C       0.45134   0.63516   0.76787
C          C       0.36484   0.81618   0.76787
C          C       0.18382   0.54866   0.76787
C          C       0.42565   0.65216   0.75903
C          C       0.34784   0.77349   0.75903
C          C       0.22651   0.57435   0.75903
N          N       0.46762   0.58152   0.70578
N          N       0.41848   0.88610   0.70578
N          N       0.11390   0.53238   0.70578
C          C       0.45379   0.54178   0.69784
C          C       0.45822   0.91201   0.69784
C          C       0.08799   0.54621   0.69784
C          C       0.48129   0.52443   0.72106
C          C       0.47557   0.95686   0.72106
C          C       0.04314   0.51871   0.72106
C          C       0.46481   0.48116   0.70625
C          C       0.51884   0.98365   0.70625
C          C       0.01635   0.53519   0.70625
C          C       0.48891   0.46307   0.73661
C          C       0.53693   0.02584   0.73661
C          C       0.97416   0.51109   0.73661
C          C       0.71032   0.35748   0.82801
C          C       0.64252   0.35284   0.82801
C          C       0.64716   0.28968   0.82801
C          C       0.68596   0.37653   0.82810
C          C       0.62347   0.30943   0.82810
C          C       0.69057   0.31404   0.82810
C          C       0.75650   0.38309   0.82535
C          C       0.61691   0.37341   0.82535
C          C       0.62659   0.24350   0.82535
C          C       0.63156   0.41212   0.74463
C          C       0.58788   0.21944   0.74463
C          C       0.78056   0.36844   0.74463
C          C       0.60759   0.43113   0.73901
C          C       0.56887   0.17646   0.73901
C          C       0.82354   0.39241   0.73901
C          C       0.56783   0.41169   0.81421
C          C       0.58831   0.15614   0.81421
C          C       0.84386   0.43217   0.81421
C          C       0.55278   0.37277   0.89377
C          C       0.62723   0.18001   0.89377
C          C       0.81999   0.44722   0.89377
C          C       0.57718   0.35426   0.90056
C          C       0.64574   0.22292   0.90056
C          C       0.77708   0.42282   0.90056
N          N       0.54112   0.42844   0.80020
N          N       0.57156   0.11268   0.80020
N          N       0.88732   0.45888   0.80020
C          C       0.55690   0.46841   0.81315
C          C       0.53159   0.08849   0.81315
C          C       0.91151   0.44310   0.81315
C          C       0.53084   0.48730   0.78618
C          C       0.51270   0.04354   0.78618
C          C       0.95646   0.46916   0.78618
C          C       0.54774   0.53053   0.80260
C          C       0.46947   0.01721   0.80260
C          C       0.98279   0.45226   0.80260
C          C       0.52337   0.54903   0.76938
C          C       0.45097   0.97434   0.76938
C          C       0.02566   0.47663   0.76938
H          H       0.30317   0.58990   0.66650
H          H       0.41010   0.71327   0.66650
H          H       0.28673   0.69683   0.66650
H          H       0.34697   0.57720   0.51806
H          H       0.42280   0.76977   0.51806
H          H       0.23023   0.65303   0.51806
H          H       0.39242   0.54676   0.53210
H          H       0.45324   0.84566   0.53210
H          H       0.15434   0.60758   0.53210
H          H       0.48071   0.65124   0.83957
H          H       0.34876   0.82947   0.83957
H          H       0.17053   0.51929   0.83957
H          H       0.43505   0.68183   0.82394
H          H       0.31817   0.75322   0.82394
H          H       0.24678   0.56495   0.82394
H          H       0.42000   0.51830   0.67991
H          H       0.48170   0.90170   0.67991
H          H       0.09830   0.58000   0.67991
H          H       0.43210   0.46171   0.66923
H          H       0.53829   0.97039   0.66923
H          H       0.02961   0.56790   0.66923
H          H       0.47579   0.42947   0.72284
H          H       0.57053   0.04632   0.72284
H          H       0.95368   0.52421   0.72284
H          H       0.70115   0.41052   0.82753
H          H       0.58948   0.29063   0.82753
H          H       0.70937   0.29885   0.82753
H          H       0.66210   0.42732   0.68142
H          H       0.57268   0.23478   0.68142
H          H       0.76522   0.33790   0.68142
H          H       0.61923   0.46084   0.67103
H          H       0.53916   0.15839   0.67103
H          H       0.84161   0.38077   0.67103
H          H       0.52196   0.35754   0.95415
H          H       0.64246   0.16442   0.95415
H          H       0.83558   0.47804   0.95415
H          H       0.56521   0.32429   0.96664
H          H       0.67571   0.24092   0.96664
H          H       0.75908   0.43479   0.96664
H          H       0.59038   0.48998   0.84456
H          H       0.51002   0.10040   0.84456
H          H       0.89960   0.40962   0.84456
O          O       0.96463   0.41087   0.85550
O          O       0.58913   0.55376   0.85550
O          O       0.44624   0.03537   0.85550
C          C       0.99045   0.39245   0.83185
C          C       0.60755   0.59800   0.83185
C          C       0.40200   0.00955   0.83185
C          C       0.03529   0.42288   0.88475
C          C       0.57712   0.61241   0.88475
C          C       0.38759   0.96471   0.88475
O          O       0.05173   0.45994   0.77966
O          O       0.54006   0.59179   0.77966
O          O       0.40821   0.94827   0.77966
H          H       0.98890   0.38275   0.69328
H          H       0.61725   0.60615   0.69328
H          H       0.39385   0.01110   0.69328
H          H       0.97700   0.36392   0.91281
H          H       0.63608   0.61308   0.91281
H          H       0.38692   0.02300   0.91281
H          H       0.05539   0.40914   0.86305
H          H       0.59086   0.64625   0.86305
H          H       0.35375   0.94461   0.86305
H          H       0.03735   0.43160   0.52460
H          H       0.56840   0.60575   0.52460
H          H       0.39425   0.96265   0.52460
