data_crystal

_cell_length_a    40.15450
_cell_length_b    40.15450
_cell_length_c    8.45560
_cell_angle_alpha 90.00000
_cell_angle_beta  90.00000
_cell_angle_gamma 120.00000

_space_group_name_Hall 'P 1'
_space_group_name_H-M_alt  'P 1'

loop_
_symmetry_equiv_pos_as_xyz
'x,y,z'

loop_
_atom_site_label
_atom_site_type_symbol
_atom_site_fract_x
_atom_site_fract_y
_atom_site_fract_z
C          C       0.28996   0.64139   0.36120
C          C       0.35861   0.64857   0.36120
C          C       0.35143   0.71004   0.36120
C          C       0.31540   0.62367   0.36125
C          C       0.37633   0.69173   0.36125
C          C       0.30827   0.68460   0.36125
C          C       0.24401   0.61449   0.35875
C          C       0.38551   0.62952   0.35875
C          C       0.37048   0.75599   0.35875
C          C       0.37380   0.59298   0.26854
C          C       0.40702   0.78082   0.26854
C          C       0.21918   0.62620   0.26854
C          C       0.39929   0.57578   0.26088
C          C       0.42422   0.82351   0.26088
C          C       0.17649   0.60071   0.26088
C          C       0.43738   0.59444   0.34670
C          C       0.40556   0.84294   0.34670
C          C       0.15706   0.56262   0.34670
C          C       0.44900   0.63092   0.43810
C          C       0.36908   0.81808   0.43810
C          C       0.18192   0.55100   0.43810
C          C       0.42357   0.64815   0.44369
C          C       0.35185   0.77542   0.44369
C          C       0.22458   0.57643   0.44369
N          N       0.46653   0.58066   0.33828
N          N       0.41934   0.88587   0.33828
N          N       0.11413   0.53347   0.33828
C          C       0.45492   0.54314   0.28803
C          C       0.45686   0.91178   0.28803
C          C       0.08822   0.54508   0.28803
C          C       0.48379   0.52732   0.27355
C          C       0.47268   0.95647   0.27355
C          C       0.04353   0.51621   0.27355
C          C       0.46630   0.48383   0.26506
C          C       0.51617   0.98247   0.26506
C          C       0.01753   0.53370   0.26506
C          C       0.49058   0.46550   0.26339
C          C       0.53450   0.02508   0.26339
C          C       0.97492   0.50942   0.26339
C          C       0.71020   0.35728   0.27007
C          C       0.64272   0.35292   0.27007
C          C       0.64708   0.28980   0.27007
C          C       0.68605   0.37643   0.27002
C          C       0.62357   0.30962   0.27002
C          C       0.69038   0.31395   0.27002
C          C       0.75629   0.38265   0.27091
C          C       0.61735   0.37364   0.27091
C          C       0.62636   0.24371   0.27091
C          C       0.63135   0.41187   0.19059
C          C       0.58813   0.21948   0.19059
C          C       0.78052   0.36865   0.19059
C          C       0.60785   0.43131   0.19125
C          C       0.56869   0.17654   0.19125
C          C       0.82346   0.39215   0.19125
C          C       0.56935   0.41288   0.27342
C          C       0.58712   0.15647   0.27342
C          C       0.84353   0.43065   0.27342
C          C       0.55485   0.37428   0.35162
C          C       0.62572   0.18057   0.35162
C          C       0.81943   0.44515   0.35162
C          C       0.57868   0.35526   0.35137
C          C       0.64474   0.22342   0.35137
C          C       0.77658   0.42132   0.35137
N          N       0.54320   0.43031   0.27223
N          N       0.56969   0.11289   0.27223
N          N       0.88711   0.45680   0.27223
C          C       0.55998   0.47041   0.27807
C          C       0.52959   0.08957   0.27807
C          C       0.91043   0.44002   0.27807
C          C       0.53401   0.48976   0.27403
C          C       0.51024   0.04425   0.27403
C          C       0.95575   0.46599   0.27403
C          C       0.55225   0.53324   0.28099
C          C       0.46676   0.01901   0.28099
C          C       0.98099   0.44775   0.28099
C          C       0.52752   0.55217   0.27243
C          C       0.44783   0.97535   0.27243
C          C       0.02465   0.47248   0.27243
O          O       0.54789   0.59537   0.26599
O          O       0.40463   0.95252   0.26599
O          O       0.04748   0.45211   0.26599
O          O       0.59538   0.55534   0.28561
O          O       0.44466   0.04004   0.28561
O          O       0.95996   0.40462   0.28561
H          H       0.30130   0.58985   0.36068
H          H       0.41015   0.71145   0.36068
H          H       0.28855   0.69870   0.36068
H          H       0.34453   0.57832   0.19864
H          H       0.42168   0.76621   0.19864
H          H       0.23379   0.65547   0.19864
H          H       0.38975   0.54806   0.18412
H          H       0.45194   0.84169   0.18412
H          H       0.15831   0.61025   0.18412
H          H       0.47851   0.64567   0.00628
H          H       0.35433   0.83284   0.00628
H          H       0.16716   0.52149   0.00628
H          H       0.43320   0.67647   0.01666
H          H       0.32353   0.75673   0.01666
H          H       0.24327   0.56680   0.01666
H          H       0.42166   0.51972   0.26237
H          H       0.48028   0.90194   0.26237
H          H       0.09806   0.57834   0.26237
H          H       0.43244   0.46445   0.26191
H          H       0.53555   0.96799   0.26191
H          H       0.03201   0.56756   0.26191
H          H       0.47650   0.43175   0.25665
H          H       0.56825   0.04475   0.25665
H          H       0.95525   0.52350   0.25665
H          H       0.70130   0.41035   0.27009
H          H       0.58965   0.29095   0.27009
H          H       0.70905   0.29870   0.27009
H          H       0.66099   0.42637   0.12334
H          H       0.57363   0.23462   0.12334
H          H       0.76538   0.33901   0.12334
H          H       0.61899   0.46066   0.12396
H          H       0.53934   0.15833   0.12396
H          H       0.84167   0.38101   0.12396
H          H       0.52496   0.35979   0.41681
H          H       0.64021   0.16517   0.41681
H          H       0.83483   0.47504   0.41681
H          H       0.56725   0.32560   0.41655
H          H       0.67440   0.24165   0.41655
H          H       0.75835   0.43275   0.41655
H          H       0.59415   0.49173   0.28991
H          H       0.50827   0.10242   0.28991
H          H       0.89758   0.40585   0.28991
C          C       0.53505   0.61386   0.13660
C          C       0.38614   0.92119   0.13660
C          C       0.07881   0.46495   0.13660
C          C       0.61548   0.59477   0.37034
C          C       0.40523   0.02071   0.37034
C          C       0.97929   0.38452   0.37034
H          H       0.51030   0.59033   0.05701
H          H       0.40967   0.91997   0.05701
H          H       0.08003   0.48970   0.05701
H          H       0.56234   0.63360   0.05738
H          H       0.36640   0.92874   0.05738
H          H       0.07126   0.43766   0.05738
H          H       0.52422   0.63364   0.19486
H          H       0.36636   0.89058   0.19486
H          H       0.10942   0.47578   0.19486
H          H       0.62092   0.62027   0.28396
H          H       0.37973   0.00065   0.28396
H          H       0.99935   0.37908   0.28396
H          H       0.64574   0.59997   0.41456
H          H       0.40003   0.04577   0.41456
H          H       0.95423   0.35426   0.41456
H          H       0.59717   0.59471   0.47899
H          H       0.40529   0.00246   0.47899
H          H       0.99754   0.40283   0.47899
C          C       0.28996   0.64139   0.86120
C          C       0.35861   0.64857   0.86120
C          C       0.35143   0.71004   0.86120
C          C       0.31540   0.62367   0.86125
C          C       0.37633   0.69173   0.86125
C          C       0.30827   0.68460   0.86125
C          C       0.24401   0.61449   0.85876
C          C       0.38551   0.62952   0.85876
C          C       0.37048   0.75599   0.85876
C          C       0.37380   0.59298   0.76854
C          C       0.40702   0.78082   0.76854
C          C       0.21918   0.62620   0.76854
C          C       0.39929   0.57578   0.76088
C          C       0.42422   0.82351   0.76088
C          C       0.17649   0.60071   0.76088
C          C       0.43738   0.59444   0.84670
C          C       0.40556   0.84294   0.84670
C          C       0.15706   0.56262   0.84670
C          C       0.44900   0.63092   0.93810
C          C       0.36908   0.81808   0.93810
C          C       0.18192   0.55100   0.93810
C          C       0.42357   0.64815   0.94368
C          C       0.35185   0.77542   0.94368
C          C       0.22458   0.57643   0.94368
N          N       0.46653   0.58066   0.83828
N          N       0.41934   0.88587   0.83828
N          N       0.11413   0.53347   0.83828
C          C       0.45492   0.54314   0.78803
C          C       0.45686   0.91178   0.78803
C          C       0.08822   0.54508   0.78803
C          C       0.48379   0.52732   0.77355
C          C       0.47268   0.95647   0.77355
C          C       0.04353   0.51621   0.77355
C          C       0.46630   0.48383   0.76507
C          C       0.51617   0.98247   0.76507
C          C       0.01753   0.53370   0.76507
C          C       0.49058   0.46550   0.76339
C          C       0.53450   0.02508   0.76339
C          C       0.97492   0.50942   0.76339
C          C       0.71020   0.35728   0.77007
C          C       0.64272   0.35292   0.77007
C          C       0.64708   0.28980   0.77007
C          C       0.68605   0.37643   0.77002
C          C       0.62357   0.30962   0.77002
C          C       0.69038   0.31395   0.77002
C          C       0.75629   0.38265   0.77091
C          C       0.61735   0.37364   0.77091
C          C       0.62636   0.24371   0.77091
C          C       0.63135   0.41187   0.69060
C          C       0.58813   0.21948   0.69060
C          C       0.78052   0.36865   0.69060
C          C       0.60785   0.43131   0.69125
C          C       0.56869   0.17654   0.69125
C          C       0.82346   0.39215   0.69125
C          C       0.56935   0.41288   0.77341
C          C       0.58712   0.15647   0.77341
C          C       0.84353   0.43065   0.77341
C          C       0.55485   0.37428   0.85162
C          C       0.62572   0.18057   0.85162
C          C       0.81943   0.44515   0.85162
C          C       0.57868   0.35526   0.85138
C          C       0.64474   0.22342   0.85138
C          C       0.77658   0.42132   0.85138
N          N       0.54320   0.43031   0.77223
N          N       0.56969   0.11289   0.77223
N          N       0.88711   0.45680   0.77223
C          C       0.55998   0.47041   0.77807
C          C       0.52959   0.08957   0.77807
C          C       0.91043   0.44002   0.77807
C          C       0.53401   0.48976   0.77403
C          C       0.51024   0.04425   0.77403
C          C       0.95575   0.46599   0.77403
C          C       0.55225   0.53324   0.78100
C          C       0.46676   0.01901   0.78100
C          C       0.98099   0.44775   0.78100
C          C       0.52752   0.55217   0.77243
C          C       0.44783   0.97535   0.77243
C          C       0.02465   0.47248   0.77243
O          O       0.54789   0.59537   0.76599
O          O       0.40463   0.95252   0.76599
O          O       0.04748   0.45211   0.76599
O          O       0.59538   0.55534   0.78561
O          O       0.44466   0.04004   0.78561
O          O       0.95996   0.40462   0.78561
H          H       0.30130   0.58985   0.86068
H          H       0.41015   0.71145   0.86068
H          H       0.28855   0.69870   0.86068
H          H       0.34453   0.57832   0.69864
H          H       0.42168   0.76621   0.69864
H          H       0.23379   0.65547   0.69864
H          H       0.38975   0.54806   0.68412
H          H       0.45194   0.84169   0.68412
H          H       0.15831   0.61025   0.68412
H          H       0.47851   0.64567   0.50628
H          H       0.35433   0.83284   0.50628
H          H       0.16716   0.52149   0.50628
H          H       0.43320   0.67647   0.51666
H          H       0.32353   0.75673   0.51666
H          H       0.24327   0.56680   0.51666
H          H       0.42166   0.51972   0.76237
H          H       0.48028   0.90194   0.76237
H          H       0.09806   0.57834   0.76237
H          H       0.43244   0.46445   0.76191
H          H       0.53555   0.96799   0.76191
H          H       0.03201   0.56756   0.76191
H          H       0.47650   0.43175   0.75665
H          H       0.56825   0.04475   0.75665
H          H       0.95525   0.52350   0.75665
H          H       0.70130   0.41035   0.77009
H          H       0.58965   0.29095   0.77009
H          H       0.70905   0.29870   0.77009
H          H       0.66099   0.42637   0.62333
H          H       0.57363   0.23462   0.62333
H          H       0.76538   0.33901   0.62333
H          H       0.61899   0.46066   0.62396
H          H       0.53934   0.15833   0.62396
H          H       0.84167   0.38101   0.62396
H          H       0.52496   0.35979   0.91681
H          H       0.64021   0.16517   0.91681
H          H       0.83483   0.47504   0.91681
H          H       0.56725   0.32560   0.91655
H          H       0.67440   0.24165   0.91655
H          H       0.75835   0.43275   0.91655
H          H       0.59415   0.49173   0.78991
H          H       0.50827   0.10242   0.78991
H          H       0.89758   0.40585   0.78991
C          C       0.53505   0.61386   0.63660
C          C       0.38614   0.92119   0.63660
C          C       0.07881   0.46495   0.63660
C          C       0.61548   0.59477   0.87034
C          C       0.40523   0.02071   0.87034
C          C       0.97929   0.38452   0.87034
H          H       0.51030   0.59033   0.55701
H          H       0.40967   0.91997   0.55701
H          H       0.08003   0.48970   0.55701
H          H       0.56234   0.63360   0.55738
H          H       0.36640   0.92874   0.55738
H          H       0.07126   0.43766   0.55738
H          H       0.52422   0.63364   0.69486
H          H       0.36636   0.89058   0.69486
H          H       0.10942   0.47578   0.69486
H          H       0.62092   0.62027   0.78396
H          H       0.37973   0.00065   0.78396
H          H       0.99935   0.37908   0.78396
H          H       0.64574   0.59997   0.91456
H          H       0.40003   0.04577   0.91456
H          H       0.95423   0.35426   0.91456
H          H       0.59717   0.59471   0.97899
H          H       0.40529   0.00246   0.97899
H          H       0.99754   0.40283   0.97899
