data_crystal

_cell_length_a    42.88130
_cell_length_b    42.88130
_cell_length_c    8.00000
_cell_angle_alpha 90.00000
_cell_angle_beta  90.00000
_cell_angle_gamma 120.00000

_space_group_name_Hall 'P 1'
_space_group_name_H-M_alt  'P 1'

loop_
_symmetry_equiv_pos_as_xyz
'x,y,z'

loop_
_atom_site_label
_atom_site_type_symbol
_atom_site_fract_x
_atom_site_fract_y
_atom_site_fract_z
C          C       0.29025   0.64200   0.38225
C          C       0.35800   0.64825   0.38225
C          C       0.35175   0.70975   0.38225
C          C       0.31511   0.62401   0.38259
C          C       0.37599   0.69110   0.38259
C          C       0.30890   0.68489   0.38259
C          C       0.24462   0.61591   0.37459
C          C       0.38409   0.62871   0.37459
C          C       0.37129   0.75538   0.37459
C          C       0.37185   0.59068   0.45415
C          C       0.40932   0.78117   0.45415
C          C       0.21883   0.62815   0.45415
C          C       0.39559   0.57192   0.44327
C          C       0.42808   0.82367   0.44327
C          C       0.17633   0.60441   0.44327
C          C       0.43236   0.59086   0.34795
C          C       0.40914   0.84150   0.34795
C          C       0.15850   0.56764   0.34795
C          C       0.44505   0.62902   0.26838
C          C       0.37098   0.81603   0.26838
C          C       0.18397   0.55495   0.26838
C          C       0.42132   0.64766   0.28254
C          C       0.35234   0.77366   0.28254
C          C       0.22634   0.57868   0.28254
N          N       0.45749   0.57327   0.32427
N          N       0.42673   0.88422   0.32427
N          N       0.11578   0.54251   0.32427
C          C       0.45323   0.53813   0.40255
C          C       0.46187   0.91510   0.40255
C          C       0.08490   0.54677   0.40255
C          C       0.48145   0.52258   0.33807
C          C       0.47742   0.95887   0.33807
C          C       0.04113   0.51855   0.33807
C          C       0.46669   0.48024   0.35080
C          C       0.51976   0.98645   0.35080
C          C       0.01355   0.53331   0.35080
C          C       0.49016   0.46326   0.29571
C          C       0.53674   0.02690   0.29571
C          C       0.97310   0.50984   0.29571
C          C       0.70985   0.35671   0.19010
C          C       0.64329   0.35314   0.19010
C          C       0.64686   0.29015   0.19010
C          C       0.68628   0.37610   0.18985
C          C       0.62390   0.31018   0.18985
C          C       0.68982   0.31372   0.18985
C          C       0.75559   0.38142   0.19649
C          C       0.61858   0.37417   0.19649
C          C       0.62583   0.24441   0.19649
C          C       0.63209   0.41217   0.11439
C          C       0.58783   0.21992   0.11439
C          C       0.78008   0.36791   0.11439
C          C       0.60963   0.43232   0.12325
C          C       0.56768   0.17731   0.12325
C          C       0.82269   0.39037   0.12325
C          C       0.57301   0.41494   0.21944
C          C       0.58506   0.15807   0.21944
C          C       0.84193   0.42699   0.21944
C          C       0.55906   0.37684   0.30161
C          C       0.62316   0.18222   0.30161
C          C       0.81778   0.44094   0.30161
C          C       0.58145   0.35673   0.28911
C          C       0.64327   0.22472   0.28911
C          C       0.77528   0.41855   0.28911
N          N       0.54921   0.43417   0.24096
N          N       0.56583   0.11504   0.24096
N          N       0.88496   0.45079   0.24096
C          C       0.55567   0.47005   0.16037
C          C       0.52995   0.08562   0.16037
C          C       0.91438   0.44433   0.16037
C          C       0.52984   0.48795   0.22809
C          C       0.51205   0.04189   0.22809
C          C       0.95811   0.47016   0.22809
C          C       0.54535   0.53058   0.21786
C          C       0.46942   0.01477   0.21786
C          C       0.98523   0.45465   0.21786
C          C       0.52117   0.54764   0.27159
C          C       0.45236   0.97353   0.27159
C          C       0.02647   0.47883   0.27159
H          H       0.30081   0.59044   0.38123
H          H       0.40956   0.71037   0.38123
H          H       0.28963   0.69919   0.38123
H          H       0.34309   0.57549   0.02862
H          H       0.42451   0.76760   0.02862
H          H       0.23240   0.65691   0.02862
H          H       0.38568   0.54229   0.00656
H          H       0.45771   0.84339   0.00656
H          H       0.15661   0.61432   0.00656
H          H       0.47360   0.64376   0.19228
H          H       0.35624   0.82984   0.19228
H          H       0.17016   0.52640   0.19228
H          H       0.43149   0.67711   0.21690
H          H       0.32289   0.75438   0.21690
H          H       0.24562   0.56851   0.21690
O          O       0.42848   0.51983   0.02340
O          O       0.48017   0.90865   0.02340
O          O       0.09135   0.57152   0.02340
H          H       0.43579   0.46069   0.40370
H          H       0.53931   0.97510   0.40370
H          H       0.02490   0.56421   0.40370
H          H       0.47718   0.42988   0.30396
H          H       0.57012   0.04730   0.30396
H          H       0.95270   0.52282   0.30396
H          H       0.70168   0.40975   0.19103
H          H       0.59025   0.29193   0.19103
H          H       0.70807   0.29832   0.19103
H          H       0.66079   0.42620   0.03946
H          H       0.57380   0.23459   0.03946
H          H       0.76541   0.33921   0.03946
H          H       0.62055   0.46190   0.05789
H          H       0.53810   0.15865   0.05789
H          H       0.84135   0.37945   0.05789
H          H       0.53062   0.36328   0.37835
H          H       0.63672   0.16734   0.37835
H          H       0.83266   0.46938   0.37835
H          H       0.57031   0.32732   0.35648
H          H       0.67268   0.24299   0.35648
H          H       0.75701   0.42969   0.35648
O          O       0.57881   0.48522   0.03200
O          O       0.51478   0.09359   0.03200
O          O       0.90641   0.42119   0.03200
O          O       0.96998   0.41515   0.15395
O          O       0.58485   0.55483   0.15395
O          O       0.44517   0.03002   0.15395
C          C       0.99451   0.39691   0.19869
C          C       0.60309   0.59760   0.19869
C          C       0.40240   0.00549   0.19869
C          C       0.03967   0.42708   0.15941
C          C       0.57292   0.61259   0.15941
C          C       0.38741   0.96033   0.15941
O          O       0.05373   0.46346   0.26665
O          O       0.53654   0.59027   0.26665
O          O       0.40973   0.94627   0.26665
H          H       0.98302   0.36845   0.12034
H          H       0.63155   0.61457   0.12034
H          H       0.38543   0.01698   0.12034
H          H       0.99018   0.38811   0.33951
H          H       0.61189   0.60207   0.33951
H          H       0.39793   0.00982   0.33951
H          H       0.04419   0.43619   0.01904
H          H       0.56381   0.60800   0.01904
H          H       0.39200   0.95581   0.01904
H          H       0.05936   0.41375   0.19126
H          H       0.58625   0.64561   0.19126
H          H       0.35439   0.94064   0.19126
H          H       0.47925   0.58627   0.22703
H          H       0.41373   0.89298   0.22703
H          H       0.10702   0.52075   0.22703
H          H       0.53022   0.42460   0.34858
H          H       0.57540   0.10562   0.34858
H          H       0.89438   0.46978   0.34858
C          C       0.29025   0.64200   0.88225
C          C       0.35800   0.64825   0.88225
C          C       0.35175   0.70975   0.88225
C          C       0.31511   0.62401   0.88258
C          C       0.37599   0.69110   0.88258
C          C       0.30890   0.68489   0.88258
C          C       0.24462   0.61591   0.87459
C          C       0.38409   0.62871   0.87459
C          C       0.37129   0.75538   0.87459
C          C       0.37185   0.59068   0.95415
C          C       0.40932   0.78117   0.95415
C          C       0.21883   0.62815   0.95415
C          C       0.39559   0.57192   0.94327
C          C       0.42808   0.82367   0.94327
C          C       0.17633   0.60441   0.94327
C          C       0.43236   0.59086   0.84794
C          C       0.40914   0.84150   0.84794
C          C       0.15850   0.56764   0.84794
C          C       0.44505   0.62902   0.76838
C          C       0.37098   0.81603   0.76838
C          C       0.18397   0.55495   0.76838
C          C       0.42132   0.64766   0.78254
C          C       0.35234   0.77366   0.78254
C          C       0.22634   0.57868   0.78254
N          N       0.45749   0.57327   0.82427
N          N       0.42673   0.88422   0.82427
N          N       0.11578   0.54251   0.82427
C          C       0.45323   0.53813   0.90255
C          C       0.46187   0.91510   0.90255
C          C       0.08490   0.54677   0.90255
C          C       0.48145   0.52258   0.83807
C          C       0.47742   0.95887   0.83807
C          C       0.04113   0.51855   0.83807
C          C       0.46669   0.48024   0.85081
C          C       0.51976   0.98645   0.85081
C          C       0.01355   0.53331   0.85081
C          C       0.49016   0.46326   0.79571
C          C       0.53674   0.02690   0.79571
C          C       0.97310   0.50984   0.79571
C          C       0.70985   0.35671   0.69010
C          C       0.64329   0.35314   0.69010
C          C       0.64686   0.29015   0.69010
C          C       0.68628   0.37610   0.68985
C          C       0.62390   0.31018   0.68985
C          C       0.68982   0.31372   0.68985
C          C       0.75559   0.38142   0.69649
C          C       0.61858   0.37417   0.69649
C          C       0.62583   0.24441   0.69649
C          C       0.63209   0.41217   0.61439
C          C       0.58783   0.21992   0.61439
C          C       0.78008   0.36791   0.61439
C          C       0.60963   0.43232   0.62325
C          C       0.56768   0.17731   0.62325
C          C       0.82269   0.39037   0.62325
C          C       0.57301   0.41494   0.71944
C          C       0.58506   0.15807   0.71944
C          C       0.84193   0.42699   0.71944
C          C       0.55906   0.37684   0.80161
C          C       0.62316   0.18222   0.80161
C          C       0.81778   0.44094   0.80161
C          C       0.58145   0.35673   0.78910
C          C       0.64327   0.22472   0.78910
C          C       0.77528   0.41855   0.78910
N          N       0.54921   0.43417   0.74096
N          N       0.56583   0.11504   0.74096
N          N       0.88496   0.45079   0.74096
C          C       0.55567   0.47005   0.66037
C          C       0.52995   0.08562   0.66037
C          C       0.91438   0.44433   0.66037
C          C       0.52984   0.48795   0.72808
C          C       0.51205   0.04189   0.72808
C          C       0.95811   0.47016   0.72808
C          C       0.54535   0.53058   0.71786
C          C       0.46942   0.01477   0.71786
C          C       0.98523   0.45465   0.71786
C          C       0.52117   0.54764   0.77158
C          C       0.45236   0.97353   0.77158
C          C       0.02647   0.47883   0.77158
H          H       0.30081   0.59044   0.88123
H          H       0.40956   0.71037   0.88123
H          H       0.28963   0.69919   0.88123
H          H       0.34309   0.57549   0.52862
H          H       0.42451   0.76760   0.52862
H          H       0.23240   0.65691   0.52862
H          H       0.38568   0.54229   0.50657
H          H       0.45771   0.84339   0.50657
H          H       0.15661   0.61432   0.50657
H          H       0.47360   0.64376   0.69227
H          H       0.35624   0.82984   0.69227
H          H       0.17016   0.52640   0.69227
H          H       0.43149   0.67711   0.71690
H          H       0.32289   0.75438   0.71690
H          H       0.24562   0.56851   0.71690
O          O       0.42848   0.51983   0.52340
O          O       0.48017   0.90865   0.52340
O          O       0.09135   0.57152   0.52340
H          H       0.43579   0.46069   0.90370
H          H       0.53931   0.97510   0.90370
H          H       0.02490   0.56421   0.90370
H          H       0.47718   0.42988   0.80397
H          H       0.57012   0.04730   0.80397
H          H       0.95270   0.52282   0.80397
H          H       0.70168   0.40975   0.69103
H          H       0.59025   0.29193   0.69103
H          H       0.70807   0.29832   0.69103
H          H       0.66079   0.42620   0.53946
H          H       0.57380   0.23459   0.53946
H          H       0.76541   0.33921   0.53946
H          H       0.62055   0.46190   0.55789
H          H       0.53810   0.15865   0.55789
H          H       0.84135   0.37945   0.55789
H          H       0.53062   0.36328   0.87835
H          H       0.63672   0.16734   0.87835
H          H       0.83266   0.46938   0.87835
H          H       0.57031   0.32732   0.85648
H          H       0.67268   0.24299   0.85648
H          H       0.75701   0.42969   0.85648
O          O       0.57881   0.48522   0.53199
O          O       0.51478   0.09359   0.53199
O          O       0.90641   0.42119   0.53199
O          O       0.96998   0.41515   0.65395
O          O       0.58485   0.55483   0.65395
O          O       0.44517   0.03002   0.65395
C          C       0.99451   0.39691   0.69869
C          C       0.60309   0.59760   0.69869
C          C       0.40240   0.00549   0.69869
C          C       0.03967   0.42708   0.65941
C          C       0.57292   0.61259   0.65941
C          C       0.38741   0.96033   0.65941
O          O       0.05373   0.46346   0.76665
O          O       0.53654   0.59027   0.76665
O          O       0.40973   0.94627   0.76665
H          H       0.98302   0.36845   0.62034
H          H       0.63155   0.61457   0.62034
H          H       0.38543   0.01698   0.62034
H          H       0.99018   0.38811   0.83950
H          H       0.61189   0.60207   0.83950
H          H       0.39793   0.00982   0.83950
H          H       0.04419   0.43619   0.51904
H          H       0.56381   0.60800   0.51904
H          H       0.39200   0.95581   0.51904
H          H       0.05936   0.41375   0.69127
H          H       0.58625   0.64561   0.69127
H          H       0.35439   0.94064   0.69127
H          H       0.47925   0.58627   0.72703
H          H       0.41373   0.89298   0.72703
H          H       0.10702   0.52075   0.72703
H          H       0.53022   0.42460   0.84858
H          H       0.57540   0.10562   0.84858
H          H       0.89438   0.46978   0.84858
