data_crystal

_cell_length_a    36.92440
_cell_length_b    36.92440
_cell_length_c    7.07380
_cell_angle_alpha 90.00000
_cell_angle_beta  90.00000
_cell_angle_gamma 120.00000

_space_group_name_Hall 'P 1'
_space_group_name_H-M_alt  'P 1'

loop_
_symmetry_equiv_pos_as_xyz
'x,y,z'

loop_
_atom_site_label
_atom_site_type_symbol
_atom_site_fract_x
_atom_site_fract_y
_atom_site_fract_z
C          C       0.29050   0.64385   0.25309
C          C       0.35615   0.64665   0.25309
C          C       0.35335   0.70950   0.25309
C          C       0.31355   0.62432   0.25294
C          C       0.37568   0.68923   0.25294
C          C       0.31077   0.68645   0.25294
C          C       0.24508   0.61965   0.25596
C          C       0.38035   0.62543   0.25596
C          C       0.37457   0.75492   0.25596
C          C       0.36586   0.58724   0.17686
C          C       0.41276   0.77862   0.17686
C          C       0.22138   0.63414   0.17686
C          C       0.38805   0.56719   0.17983
C          C       0.43281   0.82086   0.17983
C          C       0.17914   0.61195   0.17983
C          C       0.42582   0.58506   0.26520
C          C       0.41494   0.84076   0.26520
C          C       0.15924   0.57418   0.26520
C          C       0.44066   0.62324   0.34515
C          C       0.37676   0.81742   0.34515
C          C       0.18258   0.55934   0.34515
C          C       0.41829   0.64303   0.33988
C          C       0.35697   0.77526   0.33988
C          C       0.22474   0.58171   0.33988
N          N       0.45012   0.56660   0.27600
N          N       0.43340   0.88352   0.27600
N          N       0.11648   0.54988   0.27600
C          C       0.44283   0.53065   0.19693
C          C       0.46935   0.91218   0.19693
C          C       0.08782   0.55717   0.19693
C          C       0.47397   0.51717   0.22982
C          C       0.48283   0.95680   0.22982
C          C       0.04320   0.52603   0.22982
C          C       0.46440   0.47779   0.17414
C          C       0.52221   0.98661   0.17414
C          C       0.01339   0.53560   0.17414
C          C       0.49178   0.46380   0.18637
C          C       0.53620   0.02798   0.18637
C          C       0.97202   0.50822   0.18637
C          C       0.70957   0.35585   0.26201
C          C       0.64415   0.35372   0.26201
C          C       0.64628   0.29043   0.26201
C          C       0.68678   0.37566   0.26197
C          C       0.62434   0.31112   0.26197
C          C       0.68888   0.31322   0.26197
C          C       0.75502   0.37972   0.26245
C          C       0.62028   0.37530   0.26245
C          C       0.62470   0.24498   0.26245
C          C       0.63679   0.41506   0.19709
C          C       0.58494   0.22173   0.19709
C          C       0.77827   0.36321   0.19709
C          C       0.61496   0.43546   0.19701
C          C       0.56454   0.17950   0.19701
C          C       0.82050   0.38504   0.19701
C          C       0.57522   0.41622   0.26364
C          C       0.58378   0.15900   0.26364
C          C       0.84100   0.42478   0.26364
C          C       0.55814   0.37639   0.32829
C          C       0.62361   0.18175   0.32829
C          C       0.81825   0.44186   0.32829
C          C       0.58044   0.35649   0.32828
C          C       0.64351   0.22395   0.32828
C          C       0.77605   0.41956   0.32828
N          N       0.55068   0.43459   0.26281
N          N       0.56541   0.11609   0.26281
N          N       0.88391   0.44932   0.26281
C          C       0.56451   0.47616   0.24663
C          C       0.52384   0.08835   0.24663
C          C       0.91165   0.43549   0.24663
C          C       0.53166   0.48825   0.25290
C          C       0.51175   0.04341   0.25290
C          C       0.95659   0.46834   0.25290
C          C       0.54087   0.52698   0.30755
C          C       0.47302   0.01389   0.30755
C          C       0.98611   0.45913   0.30755
C          C       0.51285   0.54070   0.29884
C          C       0.45930   0.97215   0.29884
C          C       0.02785   0.48715   0.29884
O          O       0.53109   0.58061   0.36169
O          O       0.41939   0.95048   0.36169
O          O       0.04952   0.46891   0.36169
C          C       0.57204   0.59136   0.41551
C          C       0.40864   0.98068   0.41551
C          C       0.01932   0.42796   0.41551
O          O       0.57720   0.55715   0.37650
O          O       0.44285   0.02005   0.37650
O          O       0.97995   0.42280   0.37650
H          H       0.29800   0.59099   0.25340
H          H       0.40901   0.70701   0.25340
H          H       0.29299   0.70200   0.25340
H          H       0.33651   0.57290   0.10854
H          H       0.42710   0.76361   0.10854
H          H       0.23639   0.66349   0.10854
H          H       0.37627   0.53749   0.11653
H          H       0.46251   0.83878   0.11653
H          H       0.16122   0.62373   0.11653
H          H       0.47002   0.63729   0.41361
H          H       0.36271   0.83273   0.41361
H          H       0.16727   0.52998   0.41361
H          H       0.43036   0.67254   0.40545
H          H       0.32746   0.75782   0.40545
H          H       0.24218   0.56964   0.40545
H          H       0.43410   0.45832   0.11795
H          H       0.54168   0.97578   0.11795
H          H       0.02422   0.56590   0.11795
H          H       0.48251   0.43308   0.13900
H          H       0.56692   0.04943   0.13900
H          H       0.95057   0.51749   0.13900
H          H       0.70258   0.40898   0.26200
H          H       0.59102   0.29360   0.26200
H          H       0.70640   0.29742   0.26200
H          H       0.66757   0.43052   0.14180
H          H       0.56948   0.23705   0.14180
H          H       0.76295   0.33243   0.14180
H          H       0.62859   0.46647   0.14547
H          H       0.53353   0.16212   0.14547
H          H       0.83788   0.37141   0.14547
H          H       0.52704   0.36104   0.38054
H          H       0.63896   0.16600   0.38054
H          H       0.83400   0.47296   0.38054
H          H       0.56647   0.32570   0.38293
H          H       0.67430   0.24077   0.38293
H          H       0.75923   0.43353   0.38293
H          H       0.57602   0.59832   0.06012
H          H       0.40168   0.97770   0.06012
H          H       0.02230   0.42398   0.06012
H          H       0.59499   0.61910   0.34165
H          H       0.38090   0.97589   0.34165
H          H       0.02411   0.40501   0.34165
C          C       0.29050   0.64385   0.75309
C          C       0.35615   0.64665   0.75309
C          C       0.35335   0.70950   0.75309
C          C       0.31355   0.62432   0.75294
C          C       0.37568   0.68923   0.75294
C          C       0.31077   0.68645   0.75294
C          C       0.24508   0.61965   0.75596
C          C       0.38035   0.62543   0.75596
C          C       0.37457   0.75492   0.75596
C          C       0.36586   0.58724   0.67686
C          C       0.41276   0.77862   0.67686
C          C       0.22138   0.63414   0.67686
C          C       0.38805   0.56719   0.67983
C          C       0.43281   0.82086   0.67983
C          C       0.17914   0.61195   0.67983
C          C       0.42582   0.58506   0.76520
C          C       0.41494   0.84076   0.76520
C          C       0.15924   0.57418   0.76520
C          C       0.44066   0.62324   0.84516
C          C       0.37676   0.81742   0.84516
C          C       0.18258   0.55934   0.84516
C          C       0.41829   0.64303   0.83988
C          C       0.35697   0.77526   0.83988
C          C       0.22474   0.58171   0.83988
N          N       0.45012   0.56660   0.77600
N          N       0.43340   0.88352   0.77600
N          N       0.11648   0.54988   0.77600
C          C       0.44283   0.53065   0.69693
C          C       0.46935   0.91218   0.69693
C          C       0.08782   0.55717   0.69693
C          C       0.47397   0.51717   0.72982
C          C       0.48283   0.95680   0.72982
C          C       0.04320   0.52603   0.72982
C          C       0.46440   0.47779   0.67414
C          C       0.52221   0.98661   0.67414
C          C       0.01339   0.53560   0.67414
C          C       0.49178   0.46380   0.68637
C          C       0.53620   0.02798   0.68637
C          C       0.97202   0.50822   0.68637
C          C       0.70957   0.35585   0.76201
C          C       0.64415   0.35372   0.76201
C          C       0.64628   0.29043   0.76201
C          C       0.68678   0.37566   0.76197
C          C       0.62434   0.31112   0.76197
C          C       0.68888   0.31322   0.76197
C          C       0.75502   0.37972   0.76245
C          C       0.62028   0.37530   0.76245
C          C       0.62470   0.24498   0.76245
C          C       0.63679   0.41506   0.69709
C          C       0.58494   0.22173   0.69709
C          C       0.77827   0.36321   0.69709
C          C       0.61496   0.43546   0.69701
C          C       0.56454   0.17950   0.69701
C          C       0.82050   0.38504   0.69701
C          C       0.57522   0.41622   0.76364
C          C       0.58378   0.15900   0.76364
C          C       0.84100   0.42478   0.76364
C          C       0.55814   0.37639   0.82829
C          C       0.62361   0.18175   0.82829
C          C       0.81825   0.44186   0.82829
C          C       0.58044   0.35649   0.82828
C          C       0.64351   0.22395   0.82828
C          C       0.77605   0.41956   0.82828
N          N       0.55068   0.43459   0.76281
N          N       0.56541   0.11609   0.76281
N          N       0.88391   0.44932   0.76281
C          C       0.56451   0.47616   0.74663
C          C       0.52384   0.08835   0.74663
C          C       0.91165   0.43549   0.74663
C          C       0.53166   0.48825   0.75291
C          C       0.51175   0.04341   0.75291
C          C       0.95659   0.46834   0.75291
C          C       0.54087   0.52698   0.80755
C          C       0.47302   0.01389   0.80755
C          C       0.98611   0.45913   0.80755
C          C       0.51285   0.54070   0.79884
C          C       0.45930   0.97215   0.79884
C          C       0.02785   0.48715   0.79884
O          O       0.53109   0.58061   0.86169
O          O       0.41939   0.95048   0.86169
O          O       0.04952   0.46891   0.86169
C          C       0.57204   0.59136   0.91551
C          C       0.40864   0.98068   0.91551
C          C       0.01932   0.42796   0.91551
O          O       0.57720   0.55715   0.87650
O          O       0.44285   0.02005   0.87650
O          O       0.97995   0.42280   0.87650
H          H       0.29800   0.59099   0.75340
H          H       0.40901   0.70701   0.75340
H          H       0.29299   0.70200   0.75340
H          H       0.33651   0.57290   0.60854
H          H       0.42710   0.76361   0.60854
H          H       0.23639   0.66349   0.60854
H          H       0.37627   0.53749   0.61654
H          H       0.46251   0.83878   0.61654
H          H       0.16122   0.62373   0.61654
H          H       0.47002   0.63729   0.91361
H          H       0.36271   0.83273   0.91361
H          H       0.16727   0.52998   0.91361
H          H       0.43036   0.67254   0.90545
H          H       0.32746   0.75782   0.90545
H          H       0.24218   0.56964   0.90545
H          H       0.43410   0.45832   0.61794
H          H       0.54168   0.97578   0.61794
H          H       0.02422   0.56590   0.61794
H          H       0.48251   0.43308   0.63900
H          H       0.56692   0.04943   0.63900
H          H       0.95057   0.51749   0.63900
H          H       0.70258   0.40898   0.76200
H          H       0.59102   0.29360   0.76200
H          H       0.70640   0.29742   0.76200
H          H       0.66757   0.43052   0.64180
H          H       0.56948   0.23705   0.64180
H          H       0.76295   0.33243   0.64180
H          H       0.62859   0.46647   0.64546
H          H       0.53353   0.16212   0.64546
H          H       0.83788   0.37141   0.64546
H          H       0.52704   0.36104   0.88054
H          H       0.63896   0.16600   0.88054
H          H       0.83400   0.47296   0.88054
H          H       0.56647   0.32570   0.88293
H          H       0.67430   0.24077   0.88293
H          H       0.75923   0.43353   0.88293
H          H       0.57602   0.59832   0.56012
H          H       0.40168   0.97770   0.56012
H          H       0.02230   0.42398   0.56012
H          H       0.59499   0.61910   0.84165
H          H       0.38090   0.97589   0.84165
H          H       0.02411   0.40501   0.84165
