data_crystal

_cell_length_a    27.10000
_cell_length_b    19.30000
_cell_length_c    9.00000
_cell_angle_alpha 88.70000
_cell_angle_beta  81.20000
_cell_angle_gamma 110.60000

_symmetry_space_group_name_Hall 'P 1'
_symmetry_space_group_name_H-M  'P 1'

loop_
_symmetry_equiv_pos_as_xyz
 'x,y,z'

loop_
_atom_site_label
_atom_site_type_symbol
_atom_site_fract_x
_atom_site_fract_y
_atom_site_fract_z
C          C       0.97046   0.98284   0.49656
C          C       0.02954   0.01716   0.50344
C          C       0.92961   0.96602   0.62678
C          C       0.07039   0.03398   0.37322
C          C       0.95095   0.96451   0.35921
C          C       0.04905   0.03549   0.64079
C          C       0.87453   0.93353   0.62034
C          C       0.12547   0.06647   0.37966
N          N       0.77558   0.85912   0.36454
N          N       0.22442   0.14088   0.63546
C          C       0.79675   0.87938   0.48498
C          C       0.20325   0.12062   0.51502
C          C       0.60664   0.74627   0.33838
C          C       0.39336   0.25373   0.66162
C          C       0.71908   0.82339   0.36771
C          C       0.28092   0.17661   0.63229
C          C       0.67578   0.83231   0.46659
C          C       0.32422   0.16769   0.53341
C          C       0.62146   0.79535   0.45076
C          C       0.37854   0.20465   0.54924
C          C       0.65058   0.73876   0.23925
C          C       0.34942   0.26124   0.76075
C          C       0.70444   0.77623   0.25138
C          C       0.29556   0.22377   0.74862
C          C       0.85556   0.91527   0.48320
C          C       0.14444   0.08473   0.51680
C          C       0.89598   0.93220   0.35221
C          C       0.10402   0.06780   0.64779
C          C       0.49800   0.03322   0.03521
C          C       0.50200   0.96678   0.96479
C          C       0.44926   0.04734   0.05777
C          C       0.55074   0.95266   0.94223
C          C       0.54290   0.08618   0.08240
C          C       0.45710   0.91382   0.91760
C          C       0.44567   0.11074   0.12031
C          C       0.55433   0.88926   0.87969
C          C       0.53941   0.14937   0.14598
C          C       0.46059   0.85063   0.85402
C          C       0.49256   0.23413   0.21764
C          C       0.50744   0.76587   0.78236
N          N       0.45301   0.25873   0.22388
N          N       0.54699   0.74127   0.77612
C          C       0.47951   0.48717   0.27731
C          C       0.52049   0.51283   0.72269
C          C       0.49105   0.16346   0.16517
C          C       0.50895   0.83654   0.83483
C          C       0.05475   0.52555   0.82191
C          C       0.94525   0.47445   0.17809
C          C       0.06550   0.53766   0.08065
C          C       0.93450   0.46234   0.91935
C          C       0.12160   0.56622   0.03519
C          C       0.87840   0.43378   0.96481
N          N       0.22624   0.61086   0.69248
N          N       0.77376   0.38914   0.30752
C          C       0.20474   0.60187   0.83501
C          C       0.79526   0.39813   0.16499
C          C       0.44494   0.68656   0.21670
C          C       0.55506   0.31344   0.78330
C          C       0.44427   0.66096   0.38002
C          C       0.55573   0.33904   0.61998
C          C       0.49971   0.71086   0.42059
C          C       0.50029   0.28914   0.57941
C          C       0.38994   0.65671   0.47470
C          C       0.61006   0.34329   0.52530
C          C       0.34305   0.61028   0.42350
C          C       0.65695   0.38972   0.57650
C          C       0.29114   0.59813   0.49729
C          C       0.70886   0.40187   0.50271
C          C       0.28156   0.62966   0.63371
C          C       0.71844   0.37034   0.36629
C          C       0.32740   0.67736   0.68622
C          C       0.67260   0.32264   0.31378
C          C       0.38011   0.69102   0.60636
C          C       0.61989   0.30898   0.39364
C          C       0.44220   0.58019   0.38855
C          C       0.55780   0.41981   0.61145
C          C       0.54855   0.70172   0.31151
C          C       0.45145   0.29828   0.68849
C          C       0.54481   0.72437   0.14911
C          C       0.45519   0.27563   0.85089
C          C       0.54112   0.61829   0.32117
C          C       0.45888   0.38171   0.67883
C          C       0.48527   0.59523   0.11795
C          C       0.51473   0.40477   0.88205
C          C       0.48746   0.56887   0.27832
C          C       0.51254   0.43113   0.72168
C          C       0.49085   0.67629   0.11026
C          C       0.50915   0.32371   0.88974
C          C       0.42783   0.43244   0.28167
C          C       0.57217   0.56756   0.71833
C          C       0.14571   0.57524   0.88167
C          C       0.85429   0.42476   0.11833
C          C       0.11055   0.55427   0.77606
C          C       0.88945   0.44573   0.22394
C          C       0.02987   0.51580   0.97601
C          C       0.97013   0.48420   0.02399
C          C       0.42007   0.35795   0.26822
C          C       0.57993   0.64205   0.73178
C          C       0.46417   0.33427   0.24688
C          C       0.53583   0.66573   0.75312
C          C       0.51609   0.38890   0.23978
C          C       0.48391   0.61110   0.76022
C          C       0.52326   0.46295   0.25612
C          C       0.47674   0.53705   0.74388
H          H       0.05853   0.02116   0.26382
H          H       0.94147   0.97884   0.73618
H          H       0.02027   0.02407   0.74524
H          H       0.97973   0.97593   0.25476
H          H       0.15433   0.07785   0.27538
H          H       0.84567   0.92215   0.72462
H          H       0.23003   0.13046   0.40704
H          H       0.76997   0.86954   0.59296
H          H       0.31547   0.13133   0.44253
H          H       0.68453   0.86867   0.55747
H          H       0.40981   0.19458   0.47150
H          H       0.59019   0.80542   0.52850
H          H       0.35812   0.29809   0.85087
H          H       0.64188   0.70191   0.14913
H          H       0.26431   0.23125   0.83093
H          H       0.73569   0.76874   0.16907
H          H       0.11602   0.08026   0.75715
H          H       0.88398   0.91974   0.24285
H          H       0.76965   0.38598   0.07949
H          H       0.23035   0.61402   0.92051
H          H       0.59279   0.34602   0.81724
H          H       0.40721   0.65398   0.18276
H          H       0.55021   0.25493   0.78980
H          H       0.44979   0.74507   0.21020
H          H       0.49685   0.23121   0.58904
H          H       0.50316   0.76879   0.41095
H          H       0.49878   0.30509   0.46383
H          H       0.50122   0.69491   0.53617
H          H       0.41381   0.00712   0.02489
H          H       0.58619   0.99288   0.97511
H          H       0.58073   0.07707   0.06848
H          H       0.41927   0.92293   0.93152
H          H       0.40788   0.11996   0.13491
H          H       0.59212   0.88004   0.86509
H          H       0.57451   0.18893   0.18185
H          H       0.42549   0.81107   0.81815
H          H       0.52899   0.26940   0.25453
H          H       0.47101   0.73060   0.74547
H          H       0.02946   0.51009   0.73595
H          H       0.97054   0.48991   0.26404
H          H       0.04903   0.53224   0.20036
H          H       0.95097   0.46776   0.79963
H          H       0.14703   0.58175   0.12079
H          H       0.85297   0.41825   0.87921
H          H       0.34794   0.58269   0.32104
H          H       0.65206   0.41731   0.67896
H          H       0.25728   0.56355   0.44849
H          H       0.74272   0.43645   0.55151
H          H       0.32231   0.70416   0.78966
H          H       0.67769   0.29584   0.21034
H          H       0.41403   0.72953   0.64911
H          H       0.58597   0.27047   0.35089
H          H       0.40400   0.54431   0.36213
H          H       0.59600   0.45569   0.63787
H          H       0.44536   0.56475   0.50289
H          H       0.55464   0.43524   0.49711
H          H       0.57691   0.71675   0.07046
H          H       0.42309   0.28325   0.92954
H          H       0.54871   0.78250   0.14042
H          H       0.45129   0.21750   0.85958
H          H       0.54232   0.60110   0.43624
H          H       0.45768   0.39890   0.56376
H          H       0.57373   0.61082   0.24446
H          H       0.42627   0.38918   0.75554
H          H       0.44712   0.56188   0.08732
H          H       0.55288   0.43812   0.91268
H          H       0.51780   0.58866   0.03931
H          H       0.48220   0.41133   0.96069
H          H       0.48916   0.69331   0.99552
H          H       0.51084   0.30669   0.00448
H          H       0.39321   0.44944   0.29601
H          H       0.60679   0.55056   0.70399
H          H       0.12712   0.56053   0.65629
H          H       0.87288   0.43947   0.34371
H          H       0.37973   0.31758   0.27417
H          H       0.62027   0.68242   0.72583
H          H       0.55088   0.37232   0.22117
H          H       0.44912   0.62769   0.77883
H          H       0.56352   0.50317   0.25250
H          H       0.43648   0.49683   0.74750
