data_crystal

_cell_length_a    22.60000
_cell_length_b    16.20000
_cell_length_c    9.00000
_cell_angle_alpha 94.20000
_cell_angle_beta  100.30000
_cell_angle_gamma 110.60000

_symmetry_space_group_name_Hall 'P 1'
_symmetry_space_group_name_H-M  'P 1'

loop_
_symmetry_equiv_pos_as_xyz
 'x,y,z'

loop_
_atom_site_label
_atom_site_type_symbol
_atom_site_fract_x
_atom_site_fract_y
_atom_site_fract_z
C          C       0.06906   0.53339   0.50201
C          C       0.93094   0.46661   0.49799
C          C       0.02200   0.50850   0.36386
C          C       0.97800   0.49150   0.63614
C          C       0.04448   0.52365   0.63735
C          C       0.95552   0.47635   0.36265
C          C       0.97311   0.98821   0.84407
C          C       0.02689   0.01179   0.15593
C          C       0.95982   0.97911   0.10419
C          C       0.04018   0.02089   0.89581
C          C       0.93135   0.96676   0.94749
C          C       0.06865   0.03324   0.05251
N          N       0.49178   0.16365   0.12329
N          N       0.50822   0.83635   0.87671
C          C       0.49816   0.08128   0.06613
C          C       0.50184   0.91872   0.93387
C          C       0.55735   0.07563   0.04423
C          C       0.44265   0.92437   0.95577
C          C       0.44124   0.00414   0.02058
C          C       0.55876   0.99586   0.97942
C          C       0.54037   0.23949   0.16895
C          C       0.45963   0.76051   0.83105
C          C       0.52826   0.31870   0.19914
C          C       0.47174   0.68130   0.80086
C          C       0.46715   0.32617   0.19252
C          C       0.53285   0.67383   0.80748
N          N       0.14041   0.56628   0.51249
N          N       0.85959   0.43372   0.48751
C          C       0.83341   0.92226   0.75317
C          C       0.16659   0.07774   0.24683
N          N       0.86043   0.92992   0.89606
N          N       0.13957   0.07008   0.10394
C          C       0.16746   0.57664   0.39428
C          C       0.83254   0.42336   0.60572
C          C       0.56621   0.77326   0.26981
C          C       0.43379   0.22674   0.73019
C          C       0.56639   0.73841   0.42393
C          C       0.43361   0.26159   0.57607
C          C       0.50050   0.73460   0.46577
C          C       0.49950   0.26540   0.53423
C          C       0.63347   0.79327   0.52723
C          C       0.36653   0.20673   0.47277
C          C       0.68740   0.79201   0.46679
C          C       0.31260   0.20799   0.53321
C          C       0.75105   0.83579   0.54336
C          C       0.24895   0.16421   0.45664
C          C       0.76632   0.88178   0.69221
C          C       0.23368   0.11822   0.30779
C          C       0.71387   0.88507   0.75534
C          C       0.28613   0.11493   0.24466
C          C       0.64922   0.84294   0.67252
C          C       0.35078   0.15706   0.32748
C          C       0.56517   0.64204   0.40754
C          C       0.43483   0.35796   0.59246
C          C       0.44014   0.66940   0.34301
C          C       0.55986   0.33060   0.65699
C          C       0.37063   0.65370   0.37049
C          C       0.62937   0.34630   0.62951
C          C       0.23552   0.60535   0.40054
C          C       0.76448   0.39465   0.59946
C          C       0.28819   0.66177   0.51617
C          C       0.71181   0.33823   0.48383
C          C       0.35326   0.68569   0.49997
C          C       0.64674   0.31431   0.50003
C          C       0.44578   0.70554   0.19005
C          C       0.55422   0.29446   0.80995
C          C       0.44575   0.57614   0.32637
C          C       0.55425   0.42386   0.67363
C          C       0.51407   0.61834   0.13350
C          C       0.48593   0.38166   0.86650
C          C       0.31723   0.59913   0.25462
C          C       0.68277   0.40087   0.74538
C          C       0.25282   0.57701   0.26743
C          C       0.74718   0.42299   0.73257
C          C       0.50946   0.57879   0.28319
C          C       0.49054   0.42121   0.71681
C          C       0.50976   0.71032   0.15066
C          C       0.49024   0.28968   0.84934
C          C       0.57632   0.48044   0.26186
C          C       0.42368   0.51956   0.73814
C          C       0.58268   0.39833   0.23350
C          C       0.41732   0.60167   0.76650
C          C       0.51567   0.48819   0.25980
C          C       0.48433   0.51181   0.74020
C          C       0.46139   0.40830   0.22307
C          C       0.53861   0.59170   0.77693
H          H       0.48782   0.26451   0.95792
H          H       0.51218   0.73549   0.04208
H          H       0.38026   0.45908   0.71346
H          H       0.61974   0.54092   0.28654
H          H       0.36939   0.60376   0.76182
H          H       0.63061   0.39624   0.23818
H          H       0.58653   0.58957   0.78173
H          H       0.41347   0.41043   0.21827
H          H       0.03756   0.51435   0.25606
H          H       0.96244   0.48566   0.74394
H          H       0.07885   0.54200   0.74699
H          H       0.92115   0.45800   0.25301
H          H       0.86474   0.94893   0.67529
H          H       0.13526   0.05107   0.32471
H          H       0.13542   0.56217   0.28191
H          H       0.86458   0.43783   0.71809
H          H       0.61108   0.77893   0.23513
H          H       0.38892   0.22107   0.76487
H          H       0.56250   0.83855   0.28144
H          H       0.43750   0.16145   0.71856
H          H       0.49904   0.80122   0.47240
H          H       0.50096   0.19878   0.52760
H          H       0.49830   0.71170   0.57617
H          H       0.50170   0.28830   0.42383
H          H       0.67780   0.75442   0.35401
H          H       0.32220   0.24558   0.64599
H          H       0.78988   0.83471   0.48790
H          H       0.21012   0.16529   0.51210
H          H       0.72368   0.92076   0.86982
H          H       0.27632   0.07924   0.13018
H          H       0.61040   0.84923   0.72307
H          H       0.38960   0.15077   0.27693
H          H       0.56071   0.61722   0.51584
H          H       0.43929   0.38278   0.48416
H          H       0.61053   0.64333   0.38046
H          H       0.38947   0.35667   0.61954
H          H       0.27873   0.68773   0.62077
H          H       0.72127   0.31227   0.37923
H          H       0.39175   0.73101   0.59203
H          H       0.60825   0.26899   0.40797
H          H       0.44397   0.77197   0.19978
H          H       0.55603   0.22803   0.80022
H          H       0.40570   0.66133   0.10004
H          H       0.59430   0.33867   0.89996
H          H       0.40524   0.53145   0.23779
H          H       0.59476   0.46855   0.76221
H          H       0.44331   0.55063   0.43466
H          H       0.55669   0.44937   0.56534
H          H       0.47444   0.57438   0.04229
H          H       0.52556   0.42562   0.95771
H          H       0.56011   0.62422   0.10514
H          H       0.43989   0.37578   0.89486
H          H       0.32657   0.57292   0.15006
H          H       0.67343   0.42708   0.84994
H          H       0.21435   0.53630   0.17108
H          H       0.78565   0.46370   0.82892
H          H       0.03957   0.07251   0.23534
H          H       0.96043   0.92749   0.76466
H          H       0.03805   0.96169   0.21717
H          H       0.96195   0.03831   0.78283
H          H       0.07111   0.03716   0.81382
H          H       0.92889   0.96284   0.18618
H          H       0.42374   0.87495   0.02834
H          H       0.57626   0.12505   0.97166
H          H       0.40999   0.90617   0.84372
H          H       0.59001   0.09383   0.15628
H          H       0.60467   0.99293   0.96357
H          H       0.39533   0.00707   0.03643
H          H       0.41008   0.75790   0.81615
H          H       0.58992   0.24210   0.18385
H          H       0.57651   0.73400   0.83729
H          H       0.42349   0.26600   0.16271
H          H       0.04754   0.02099   0.27773
H          H       0.95246   0.97901   0.72227
