data_21021N2_PM
_symmetry_space_group_name_H-M    'P1'
_cell_length_a    22.600000
_cell_length_b    16.200000
_cell_length_c    9.000000
_cell_angle_alpha    94.200000
_cell_angle_beta    100.300000
_cell_angle_gamma    110.600000
_symmetry_Int_Tables_number 1

loop_
_symmetry_equiv_pos_as_xyz
'x,y,z'

loop_
_atom_site_label
_atom_site_type_symbol
_atom_site_fract_x
_atom_site_fract_y
_atom_site_fract_z
C1    C    0.069060    0.533390    0.502010
C2    C    0.930940    0.466610    0.497990
C3    C    0.022000    0.508500    0.363860
C4    C    0.978000    0.491500    0.636140
C5    C    0.044480    0.523650    0.637350
C6    C    0.955520    0.476350    0.362650
C7    C    0.973110    0.988210    0.844070
C8    C    0.026890    0.011790    0.155930
C9    C    0.959820    0.979110    0.104190
C10    C    0.040180    0.020890    0.895810
C11    C    0.931350    0.966760    0.947490
C12    C    0.068650    0.033240    0.052510
N1    N    0.491780    0.163650    0.123290
N2    N    0.508220    0.836350    0.876710
C13    C    0.498160    0.081280    0.066130
C14    C    0.501840    0.918720    0.933870
C15    C    0.557350    0.075630    0.044230
C16    C    0.442650    0.924370    0.955770
C17    C    0.441240    0.004140    0.020580
C18    C    0.558760    0.995860    0.979420
C19    C    0.540370    0.239490    0.168950
C20    C    0.459630    0.760510    0.831050
C21    C    0.528260    0.318700    0.199140
C22    C    0.471740    0.681300    0.800860
C23    C    0.467150    0.326170    0.192520
C24    C    0.532850    0.673830    0.807480
N3    N    0.140410    0.566280    0.512490
N4    N    0.859590    0.433720    0.487510
C25    C    0.833410    0.922260    0.753170
C26    C    0.166590    0.077740    0.246830
N5    N    0.860430    0.929920    0.896060
N6    N    0.139570    0.070080    0.103940
C27    C    0.167460    0.576640    0.394280
C28    C    0.832540    0.423360    0.605720
C29    C    0.566210    0.773260    0.269810
C30    C    0.433790    0.226740    0.730190
C31    C    0.566390    0.738410    0.423930
C32    C    0.433610    0.261590    0.576070
C33    C    0.500500    0.734600    0.465770
C34    C    0.499500    0.265400    0.534230
C35    C    0.633470    0.793270    0.527230
C36    C    0.366530    0.206730    0.472770
C37    C    0.687400    0.792010    0.466790
C38    C    0.312600    0.207990    0.533210
C39    C    0.751050    0.835790    0.543360
C40    C    0.248950    0.164210    0.456640
C41    C    0.766320    0.881780    0.692210
C42    C    0.233680    0.118220    0.307790
C43    C    0.713870    0.885070    0.755340
C44    C    0.286130    0.114930    0.244660
C45    C    0.649220    0.842940    0.672520
C46    C    0.350780    0.157060    0.327480
C47    C    0.565170    0.642040    0.407540
C48    C    0.434830    0.357960    0.592460
C49    C    0.440140    0.669400    0.343010
C50    C    0.559860    0.330600    0.656990
C51    C    0.370630    0.653700    0.370490
C52    C    0.629370    0.346300    0.629510
C53    C    0.235520    0.605350    0.400540
C54    C    0.764480    0.394650    0.599460
C55    C    0.288190    0.661770    0.516170
C56    C    0.711810    0.338230    0.483830
C57    C    0.353260    0.685690    0.499970
C58    C    0.646740    0.314310    0.500030
C59    C    0.445780    0.705540    0.190050
C60    C    0.554220    0.294460    0.809950
C61    C    0.445750    0.576140    0.326370
C62    C    0.554250    0.423860    0.673630
C63    C    0.514070    0.618340    0.133500
C64    C    0.485930    0.381660    0.866500
C65    C    0.317230    0.599130    0.254620
C66    C    0.682770    0.400870    0.745380
C67    C    0.252820    0.577010    0.267430
C68    C    0.747180    0.422990    0.732570
C69    C    0.509460    0.578790    0.283190
C70    C    0.490540    0.421210    0.716810
C71    C    0.509760    0.710320    0.150660
C72    C    0.490240    0.289680    0.849340
C73    C    0.576320    0.480440    0.261860
C74    C    0.423680    0.519560    0.738140
C75    C    0.582680    0.398330    0.233500
C76    C    0.417320    0.601670    0.766500
C77    C    0.515670    0.488190    0.259800
C78    C    0.484330    0.511810    0.740200
C79    C    0.461390    0.408300    0.223070
C80    C    0.538610    0.591700    0.776930
H1    H    0.487820    0.264510    0.957920
H2    H    0.512180    0.735490    0.042080
H3    H    0.380260    0.459080    0.713460
H4    H    0.619740    0.540920    0.286540
H5    H    0.369390    0.603760    0.761820
H6    H    0.630610    0.396240    0.238180
H7    H    0.586530    0.589570    0.781730
H8    H    0.413470    0.410430    0.218270
H9    H    0.037560    0.514350    0.256060
H10    H    0.962440    0.485660    0.743940
H11    H    0.078850    0.542000    0.746990
H12    H    0.921150    0.458000    0.253010
H13    H    0.864740    0.948930    0.675290
H14    H    0.135260    0.051070    0.324710
H15    H    0.135420    0.562170    0.281910
H16    H    0.864580    0.437830    0.718090
H17    H    0.611080    0.778930    0.235130
H18    H    0.388920    0.221070    0.764870
H19    H    0.562500    0.838550    0.281440
H20    H    0.437500    0.161450    0.718560
H21    H    0.499040    0.801220    0.472400
H22    H    0.500960    0.198780    0.527600
H23    H    0.498300    0.711700    0.576170
H24    H    0.501700    0.288300    0.423830
H25    H    0.677800    0.754420    0.354010
H26    H    0.322200    0.245580    0.645990
H27    H    0.789880    0.834710    0.487900
H28    H    0.210120    0.165290    0.512100
H29    H    0.723680    0.920760    0.869820
H30    H    0.276320    0.079240    0.130180
H31    H    0.610400    0.849230    0.723070
H32    H    0.389600    0.150770    0.276930
H33    H    0.560710    0.617220    0.515840
H34    H    0.439290    0.382780    0.484160
H35    H    0.610530    0.643330    0.380460
H36    H    0.389470    0.356670    0.619540
H37    H    0.278730    0.687730    0.620770
H38    H    0.721270    0.312270    0.379230
H39    H    0.391750    0.731010    0.592030
H40    H    0.608250    0.268990    0.407970
H41    H    0.443970    0.771970    0.199780
H42    H    0.556030    0.228030    0.800220
H43    H    0.405700    0.661330    0.100040
H44    H    0.594300    0.338670    0.899960
H45    H    0.405240    0.531450    0.237790
H46    H    0.594760    0.468550    0.762210
H47    H    0.443310    0.550630    0.434660
H48    H    0.556690    0.449370    0.565340
H49    H    0.474440    0.574380    0.042290
H50    H    0.525560    0.425620    0.957710
H51    H    0.560110    0.624220    0.105140
H52    H    0.439890    0.375780    0.894860
H53    H    0.326570    0.572920    0.150060
H54    H    0.673430    0.427080    0.849940
H55    H    0.214350    0.536300    0.171080
H56    H    0.785650    0.463700    0.828920
H57    H    0.071110    0.037160    0.813820
H58    H    0.928890    0.962840    0.186180
H59    H    0.576260    0.125050    0.971660
H60    H    0.604670    0.992930    0.963570
H61    H    0.395330    0.007070    0.036430
H62    H    0.410080    0.757900    0.816150
H63    H    0.589920    0.242100    0.183850
H64    H    0.576510    0.734000    0.837290
H65    H    0.423490    0.266000    0.162710
H66    H    0.047540    0.020990    0.277730
H67    H    0.952460    0.979010    0.722270
