data_crystal

_cell_length_a    30.04180
_cell_length_b    30.04180
_cell_length_c    8.54860
_cell_angle_alpha 90.00000
_cell_angle_beta  90.00000
_cell_angle_gamma 120.00000

_space_group_name_Hall 'P 1'
_space_group_name_H-M_alt  'P 1'

loop_
_symmetry_equiv_pos_as_xyz
'x,y,z'

loop_
_atom_site_label
_atom_site_type_symbol
_atom_site_fract_x
_atom_site_fract_y
_atom_site_fract_z
C          C       0.54926   0.04557   0.24502
C          C       0.95443   0.50369   0.24502
C          C       0.49631   0.45074   0.24502
C          C       0.45074   0.95443   0.24502
C          C       0.04557   0.49631   0.24502
C          C       0.50369   0.54926   0.24502
C          C       0.50404   0.04933   0.24931
C          C       0.95067   0.45471   0.24931
C          C       0.54529   0.49596   0.24931
C          C       0.49596   0.95067   0.24931
C          C       0.04933   0.54529   0.24931
C          C       0.45471   0.50404   0.24931
C          C       0.45681   0.00364   0.24663
C          C       0.99636   0.45317   0.24663
C          C       0.54683   0.54319   0.24663
C          C       0.54319   0.99636   0.24663
C          C       0.00364   0.54683   0.24663
C          C       0.45317   0.45681   0.24663
C          C       0.60296   0.08984   0.23557
C          C       0.91016   0.51312   0.23557
C          C       0.48688   0.39704   0.23557
C          C       0.39704   0.91016   0.23557
C          C       0.08984   0.48688   0.23557
C          C       0.51312   0.60296   0.23557
C          C       0.50214   0.09815   0.26123
C          C       0.90185   0.40399   0.26123
C          C       0.59601   0.49786   0.26123
C          C       0.49786   0.90185   0.26123
C          C       0.09815   0.59601   0.26123
C          C       0.40399   0.50214   0.26123
C          C       0.64414   0.08683   0.30145
C          C       0.91317   0.55731   0.30145
C          C       0.44269   0.35586   0.30145
C          C       0.35586   0.91317   0.30145
C          C       0.08683   0.44269   0.30145
C          C       0.55731   0.64414   0.30145
C          C       0.69361   0.12832   0.29712
C          C       0.87168   0.56529   0.29712
C          C       0.43471   0.30639   0.29712
C          C       0.30639   0.87168   0.29712
C          C       0.12832   0.43471   0.29712
C          C       0.56529   0.69361   0.29712
C          C       0.70419   0.17473   0.22706
C          C       0.82527   0.52946   0.22706
C          C       0.47054   0.29581   0.22706
C          C       0.29581   0.82527   0.22706
C          C       0.17473   0.47054   0.22706
C          C       0.52946   0.70419   0.22706
C          C       0.66383   0.17676   0.15142
C          C       0.82324   0.48707   0.15142
C          C       0.51293   0.33617   0.15142
C          C       0.33617   0.82324   0.15142
C          C       0.17676   0.51293   0.15142
C          C       0.48707   0.66383   0.15142
C          C       0.61455   0.13494   0.15497
C          C       0.86506   0.47961   0.15497
C          C       0.52039   0.38545   0.15497
C          C       0.38545   0.86506   0.15497
C          C       0.13494   0.52039   0.15497
C          C       0.47961   0.61455   0.15497
C          C       0.53920   0.14050   0.34528
C          C       0.85950   0.39870   0.34528
C          C       0.60130   0.46080   0.34528
C          C       0.46080   0.85950   0.34528
C          C       0.14050   0.60130   0.34528
C          C       0.39870   0.53920   0.34528
C          C       0.53848   0.18595   0.35235
C          C       0.81405   0.35253   0.35235
C          C       0.64747   0.46152   0.35235
C          C       0.46152   0.81405   0.35235
C          C       0.18595   0.64747   0.35235
C          C       0.35253   0.53848   0.35235
C          C       0.49980   0.19099   0.27794
C          C       0.80901   0.30881   0.27794
C          C       0.69119   0.50020   0.27794
C          C       0.50020   0.80901   0.27794
C          C       0.19099   0.69119   0.27794
C          C       0.30881   0.49980   0.27794
C          C       0.46097   0.14792   0.20076
C          C       0.85208   0.31305   0.20076
C          C       0.68695   0.53903   0.20076
C          C       0.53903   0.85208   0.20076
C          C       0.14792   0.68695   0.20076
C          C       0.31305   0.46097   0.20076
C          C       0.46197   0.10251   0.19370
C          C       0.89749   0.35946   0.19370
C          C       0.64054   0.53803   0.19370
C          C       0.53803   0.89749   0.19370
C          C       0.10251   0.64054   0.19370
C          C       0.35946   0.46197   0.19370
C          C       0.75881   0.26134   0.27296
C          C       0.73866   0.49747   0.27296
C          C       0.50253   0.24119   0.27296
C          C       0.24119   0.73866   0.27296
C          C       0.26134   0.50253   0.27296
C          C       0.49747   0.75881   0.27296
N          N       0.75453   0.21848   0.23449
N          N       0.78152   0.53605   0.23449
N          N       0.46395   0.24547   0.23449
N          N       0.24547   0.78152   0.23449
N          N       0.21848   0.46395   0.23449
N          N       0.53605   0.75453   0.23449
H          H       0.42182   0.00631   0.24649
H          H       0.99369   0.41551   0.24649
H          H       0.58449   0.57818   0.24649
H          H       0.57818   0.99369   0.24649
H          H       0.00631   0.58449   0.24649
H          H       0.41551   0.42182   0.24649
H          H       0.63719   0.05177   0.36299
H          H       0.94823   0.58542   0.36299
H          H       0.41458   0.36281   0.36299
H          H       0.36281   0.94823   0.36299
H          H       0.05177   0.41458   0.36299
H          H       0.58542   0.63719   0.36299
H          H       0.72465   0.12534   0.35355
H          H       0.87466   0.59931   0.35355
H          H       0.40069   0.27535   0.35355
H          H       0.27535   0.87466   0.35355
H          H       0.12534   0.40069   0.35355
H          H       0.59931   0.72465   0.35355
H          H       0.67124   0.21131   0.08632
H          H       0.78869   0.45993   0.08632
H          H       0.54007   0.32876   0.08632
H          H       0.32876   0.78869   0.08632
H          H       0.21131   0.54007   0.08632
H          H       0.45993   0.67124   0.08632
H          H       0.58336   0.13752   0.09734
H          H       0.86248   0.44584   0.09734
H          H       0.55416   0.41664   0.09734
H          H       0.41664   0.86248   0.09734
H          H       0.13752   0.55416   0.09734
H          H       0.44584   0.58336   0.09734
H          H       0.57011   0.13752   0.40259
H          H       0.86248   0.43259   0.40259
H          H       0.56741   0.42989   0.40259
H          H       0.42989   0.86248   0.40259
H          H       0.13752   0.56741   0.40259
H          H       0.43259   0.57011   0.40259
H          H       0.56852   0.21817   0.41946
H          H       0.78183   0.35035   0.41946
H          H       0.64965   0.43148   0.41946
H          H       0.43148   0.78183   0.41946
H          H       0.21817   0.64965   0.41946
H          H       0.35035   0.56852   0.41946
H          H       0.43000   0.15065   0.14405
H          H       0.84935   0.27935   0.14405
H          H       0.72065   0.57000   0.14405
H          H       0.57000   0.84935   0.14405
H          H       0.15065   0.72065   0.14405
H          H       0.27935   0.43000   0.14405
H          H       0.43165   0.07005   0.12894
H          H       0.92995   0.36160   0.12894
H          H       0.63840   0.56835   0.12894
H          H       0.56835   0.92995   0.12894
H          H       0.07005   0.63840   0.12894
H          H       0.36160   0.43165   0.12894
H          H       0.72490   0.26555   0.30693
H          H       0.73445   0.45935   0.30693
H          H       0.54065   0.27510   0.30693
H          H       0.27510   0.73445   0.30693
H          H       0.26555   0.54065   0.30693
H          H       0.45935   0.72490   0.30693
C          C       0.54926   0.04557   0.74502
C          C       0.95443   0.50369   0.74502
C          C       0.49631   0.45074   0.74502
C          C       0.45074   0.95443   0.74502
C          C       0.04557   0.49631   0.74502
C          C       0.50369   0.54926   0.74502
C          C       0.50404   0.04933   0.74931
C          C       0.95067   0.45471   0.74931
C          C       0.54529   0.49596   0.74931
C          C       0.49596   0.95067   0.74931
C          C       0.04933   0.54529   0.74931
C          C       0.45471   0.50404   0.74931
C          C       0.45681   0.00364   0.74663
C          C       0.99636   0.45317   0.74663
C          C       0.54683   0.54319   0.74663
C          C       0.54319   0.99636   0.74663
C          C       0.00364   0.54683   0.74663
C          C       0.45317   0.45681   0.74663
C          C       0.60296   0.08984   0.73557
C          C       0.91016   0.51312   0.73557
C          C       0.48688   0.39704   0.73557
C          C       0.39704   0.91016   0.73557
C          C       0.08984   0.48688   0.73557
C          C       0.51312   0.60296   0.73557
C          C       0.50214   0.09815   0.76123
C          C       0.90185   0.40399   0.76123
C          C       0.59601   0.49786   0.76123
C          C       0.49786   0.90185   0.76123
C          C       0.09815   0.59601   0.76123
C          C       0.40399   0.50214   0.76123
C          C       0.64414   0.08683   0.80146
C          C       0.91317   0.55731   0.80146
C          C       0.44269   0.35586   0.80146
C          C       0.35586   0.91317   0.80146
C          C       0.08683   0.44269   0.80146
C          C       0.55731   0.64414   0.80146
C          C       0.69361   0.12832   0.79712
C          C       0.87168   0.56529   0.79712
C          C       0.43471   0.30639   0.79712
C          C       0.30639   0.87168   0.79712
C          C       0.12832   0.43471   0.79712
C          C       0.56529   0.69361   0.79712
C          C       0.70419   0.17473   0.72706
C          C       0.82527   0.52946   0.72706
C          C       0.47054   0.29581   0.72706
C          C       0.29581   0.82527   0.72706
C          C       0.17473   0.47054   0.72706
C          C       0.52946   0.70419   0.72706
C          C       0.66383   0.17676   0.65142
C          C       0.82324   0.48707   0.65142
C          C       0.51293   0.33617   0.65142
C          C       0.33617   0.82324   0.65142
C          C       0.17676   0.51293   0.65142
C          C       0.48707   0.66383   0.65142
C          C       0.61455   0.13494   0.65497
C          C       0.86506   0.47961   0.65497
C          C       0.52039   0.38545   0.65497
C          C       0.38545   0.86506   0.65497
C          C       0.13494   0.52039   0.65497
C          C       0.47961   0.61455   0.65497
C          C       0.53920   0.14050   0.84528
C          C       0.85950   0.39870   0.84528
C          C       0.60130   0.46080   0.84528
C          C       0.46080   0.85950   0.84528
C          C       0.14050   0.60130   0.84528
C          C       0.39870   0.53920   0.84528
C          C       0.53848   0.18595   0.85235
C          C       0.81405   0.35253   0.85235
C          C       0.64747   0.46152   0.85235
C          C       0.46152   0.81405   0.85235
C          C       0.18595   0.64747   0.85235
C          C       0.35253   0.53848   0.85235
C          C       0.49980   0.19099   0.77794
C          C       0.80901   0.30881   0.77794
C          C       0.69119   0.50020   0.77794
C          C       0.50020   0.80901   0.77794
C          C       0.19099   0.69119   0.77794
C          C       0.30881   0.49980   0.77794
C          C       0.46097   0.14792   0.70076
C          C       0.85208   0.31305   0.70076
C          C       0.68695   0.53903   0.70076
C          C       0.53903   0.85208   0.70076
C          C       0.14792   0.68695   0.70076
C          C       0.31305   0.46097   0.70076
C          C       0.46197   0.10251   0.69370
C          C       0.89749   0.35946   0.69370
C          C       0.64054   0.53803   0.69370
C          C       0.53803   0.89749   0.69370
C          C       0.10251   0.64054   0.69370
C          C       0.35946   0.46197   0.69370
C          C       0.75881   0.26134   0.77295
C          C       0.73866   0.49747   0.77295
C          C       0.50253   0.24119   0.77295
C          C       0.24119   0.73866   0.77295
C          C       0.26134   0.50253   0.77295
C          C       0.49747   0.75881   0.77295
N          N       0.75453   0.21848   0.73449
N          N       0.78152   0.53605   0.73449
N          N       0.46395   0.24547   0.73449
N          N       0.24547   0.78152   0.73449
N          N       0.21848   0.46395   0.73449
N          N       0.53605   0.75453   0.73449
H          H       0.42182   0.00631   0.74649
H          H       0.99369   0.41551   0.74649
H          H       0.58449   0.57818   0.74649
H          H       0.57818   0.99369   0.74649
H          H       0.00631   0.58449   0.74649
H          H       0.41551   0.42182   0.74649
H          H       0.63719   0.05177   0.86299
H          H       0.94823   0.58542   0.86299
H          H       0.41458   0.36281   0.86299
H          H       0.36281   0.94823   0.86299
H          H       0.05177   0.41458   0.86299
H          H       0.58542   0.63719   0.86299
H          H       0.72465   0.12534   0.85355
H          H       0.87466   0.59931   0.85355
H          H       0.40069   0.27535   0.85355
H          H       0.27535   0.87466   0.85355
H          H       0.12534   0.40069   0.85355
H          H       0.59931   0.72465   0.85355
H          H       0.67124   0.21131   0.58632
H          H       0.78869   0.45993   0.58632
H          H       0.54007   0.32876   0.58632
H          H       0.32876   0.78869   0.58632
H          H       0.21131   0.54007   0.58632
H          H       0.45993   0.67124   0.58632
H          H       0.58336   0.13752   0.59734
H          H       0.86248   0.44584   0.59734
H          H       0.55416   0.41664   0.59734
H          H       0.41664   0.86248   0.59734
H          H       0.13752   0.55416   0.59734
H          H       0.44584   0.58336   0.59734
H          H       0.57011   0.13752   0.90259
H          H       0.86248   0.43259   0.90259
H          H       0.56741   0.42989   0.90259
H          H       0.42989   0.86248   0.90259
H          H       0.13752   0.56741   0.90259
H          H       0.43259   0.57011   0.90259
H          H       0.56852   0.21817   0.91946
H          H       0.78183   0.35035   0.91946
H          H       0.64965   0.43148   0.91946
H          H       0.43148   0.78183   0.91946
H          H       0.21817   0.64965   0.91946
H          H       0.35035   0.56852   0.91946
H          H       0.43000   0.15065   0.64404
H          H       0.84935   0.27935   0.64404
H          H       0.72065   0.57000   0.64404
H          H       0.57000   0.84935   0.64404
H          H       0.15065   0.72065   0.64404
H          H       0.27935   0.43000   0.64404
H          H       0.43165   0.07005   0.62894
H          H       0.92995   0.36160   0.62894
H          H       0.63840   0.56835   0.62894
H          H       0.56835   0.92995   0.62894
H          H       0.07005   0.63840   0.62894
H          H       0.36160   0.43165   0.62894
H          H       0.72490   0.26555   0.80693
H          H       0.73445   0.45935   0.80693
H          H       0.54065   0.27510   0.80693
H          H       0.27510   0.73445   0.80693
H          H       0.26555   0.54065   0.80693
H          H       0.45935   0.72490   0.80693
