data_crystal

_cell_length_a    17.04650
_cell_length_b    24.85080
_cell_length_c    9.01320
_cell_angle_alpha 90.00000
_cell_angle_beta  90.00000
_cell_angle_gamma 103.35600

_space_group_name_Hall 'P 1'
_space_group_name_H-M_alt  'P 1'

loop_
_symmetry_equiv_pos_as_xyz
'x,y,z'

loop_
_atom_site_label
_atom_site_type_symbol
_atom_site_fract_x
_atom_site_fract_y
_atom_site_fract_z
C          C       0.29156   0.82036   0.26986
C          C       0.70844   0.32036   0.23014
C          C       0.20708   0.81903   0.25296
C          C       0.79292   0.31903   0.24703
C          C       0.16758   0.76955   0.23328
C          C       0.83242   0.26955   0.26672
C          C       0.33955   0.87132   0.29187
C          C       0.66045   0.37132   0.20813
C          C       0.15734   0.86850   0.25417
C          C       0.84266   0.36850   0.24583
C          C       0.39827   0.88093   0.21754
C          C       0.60173   0.38093   0.28246
C          C       0.44190   0.92815   0.23442
C          C       0.55810   0.42815   0.26558
C          C       0.42882   0.96799   0.32615
C          C       0.57118   0.46799   0.17385
C          C       0.37160   0.95757   0.40328
C          C       0.62840   0.45757   0.09672
C          C       0.32846   0.91011   0.38705
C          C       0.67154   0.41011   0.11295
C          C       0.16348   0.91301   0.17190
C          C       0.83652   0.41301   0.32810
C          C       0.11760   0.95850   0.17519
C          C       0.88240   0.45850   0.32481
C          C       0.06281   0.96139   0.26100
C          C       0.93719   0.46139   0.23900
C          C       0.05518   0.91586   0.33975
C          C       0.94482   0.41586   0.16025
C          C       0.10162   0.87062   0.33690
C          C       0.89838   0.37062   0.16310
C          C       0.97340   0.02198   0.34097
C          C       0.02660   0.52198   0.15903
N          N       0.51842   0.03152   0.25738
N          N       0.48158   0.53152   0.24262
C          C       0.20839   0.72116   0.22982
C          C       0.79161   0.22116   0.27018
C          C       0.29287   0.72249   0.24671
C          C       0.70713   0.22249   0.25329
C          C       0.33236   0.77197   0.26638
C          C       0.66764   0.27197   0.23362
C          C       0.16040   0.67020   0.20786
C          C       0.83960   0.17020   0.29214
C          C       0.34261   0.67302   0.24555
C          C       0.65739   0.17302   0.25445
C          C       0.10170   0.66060   0.28224
C          C       0.89830   0.16060   0.21776
C          C       0.05808   0.61338   0.26544
C          C       0.94192   0.11338   0.23456
C          C       0.07116   0.57352   0.17375
C          C       0.92884   0.07352   0.32625
C          C       0.12836   0.58392   0.09657
C          C       0.87164   0.08392   0.40343
C          C       0.17149   0.63139   0.11273
C          C       0.82851   0.13139   0.38727
C          C       0.33647   0.62853   0.32787
C          C       0.66353   0.12853   0.17213
C          C       0.38236   0.58303   0.32465
C          C       0.61764   0.08303   0.17535
C          C       0.43716   0.58013   0.23887
C          C       0.56284   0.08013   0.26113
C          C       0.44479   0.62564   0.16006
C          C       0.55521   0.12564   0.33994
C          C       0.39835   0.67089   0.16285
C          C       0.60165   0.17089   0.33715
C          C       0.52661   0.51953   0.15904
C          C       0.47339   0.01953   0.34096
N          N       0.98159   0.51000   0.24266
N          N       0.01841   0.01000   0.25734
H          H       0.10176   0.76886   0.21583
H          H       0.89824   0.26886   0.28417
H          H       0.40861   0.85124   0.14246
H          H       0.59139   0.35124   0.35754
H          H       0.48691   0.93498   0.17422
H          H       0.51309   0.43498   0.32578
H          H       0.36052   0.98766   0.47685
H          H       0.63948   0.48766   0.02315
H          H       0.28506   0.90275   0.45004
H          H       0.71494   0.40275   0.04996
H          H       0.20507   0.91182   0.10360
H          H       0.79493   0.41182   0.39641
H          H       0.12383   0.99308   0.11109
H          H       0.87617   0.49308   0.38892
H          H       0.01211   0.91568   0.40513
H          H       0.98789   0.41568   0.09487
H          H       0.09566   0.83626   0.40259
H          H       0.90434   0.33626   0.09741
H          H       0.96556   0.99517   0.42550
H          H       0.03444   0.49517   0.07450
H          H       0.39819   0.77266   0.28382
H          H       0.60181   0.27266   0.21618
H          H       0.09136   0.69030   0.35730
H          H       0.90864   0.19030   0.14270
H          H       0.01308   0.60656   0.32568
H          H       0.98692   0.10656   0.17432
H          H       0.13942   0.55382   0.02303
H          H       0.86058   0.05382   0.47696
H          H       0.21487   0.63874   0.04972
H          H       0.78513   0.13874   0.45028
H          H       0.29487   0.62972   0.39616
H          H       0.70513   0.12972   0.10384
H          H       0.37614   0.54846   0.38880
H          H       0.62386   0.04846   0.11121
H          H       0.48787   0.62581   0.09471
H          H       0.51213   0.12581   0.40529
H          H       0.40430   0.70524   0.09713
H          H       0.59570   0.20524   0.40287
H          H       0.53446   0.54632   0.07448
H          H       0.46554   0.04632   0.42552
C          C       0.29156   0.82036   0.76985
C          C       0.70844   0.32036   0.73014
C          C       0.20708   0.81903   0.75296
C          C       0.79292   0.31903   0.74704
C          C       0.16758   0.76955   0.73328
C          C       0.83242   0.26955   0.76672
C          C       0.33955   0.87132   0.79187
C          C       0.66045   0.37132   0.70813
C          C       0.15734   0.86850   0.75417
C          C       0.84266   0.36850   0.74583
C          C       0.39827   0.88093   0.71754
C          C       0.60173   0.38093   0.78245
C          C       0.44190   0.92815   0.73442
C          C       0.55810   0.42815   0.76558
C          C       0.42882   0.96799   0.82615
C          C       0.57118   0.46799   0.67385
C          C       0.37160   0.95757   0.90328
C          C       0.62840   0.45757   0.59672
C          C       0.32846   0.91011   0.88705
C          C       0.67154   0.41011   0.61295
C          C       0.16348   0.91301   0.67190
C          C       0.83652   0.41301   0.82810
C          C       0.11760   0.95850   0.67519
C          C       0.88240   0.45850   0.82481
C          C       0.06281   0.96139   0.76100
C          C       0.93719   0.46139   0.73900
C          C       0.05518   0.91586   0.83975
C          C       0.94482   0.41586   0.66024
C          C       0.10162   0.87062   0.83689
C          C       0.89838   0.37062   0.66310
C          C       0.97340   0.02198   0.84097
C          C       0.02660   0.52198   0.65903
N          N       0.51842   0.03152   0.75738
N          N       0.48158   0.53152   0.74262
C          C       0.20839   0.72116   0.72982
C          C       0.79161   0.22116   0.77018
C          C       0.29287   0.72249   0.74671
C          C       0.70713   0.22249   0.75330
C          C       0.33236   0.77197   0.76638
C          C       0.66764   0.27197   0.73362
C          C       0.16040   0.67020   0.70786
C          C       0.83960   0.17020   0.79214
C          C       0.34261   0.67302   0.74555
C          C       0.65739   0.17302   0.75445
C          C       0.10170   0.66060   0.78224
C          C       0.89830   0.16060   0.71776
C          C       0.05808   0.61338   0.76544
C          C       0.94192   0.11338   0.73456
C          C       0.07116   0.57352   0.67375
C          C       0.92884   0.07352   0.82625
C          C       0.12836   0.58392   0.59657
C          C       0.87164   0.08392   0.90342
C          C       0.17149   0.63139   0.61273
C          C       0.82851   0.13139   0.88727
C          C       0.33647   0.62853   0.82787
C          C       0.66353   0.12853   0.67213
C          C       0.38236   0.58303   0.82465
C          C       0.61764   0.08303   0.67536
C          C       0.43716   0.58013   0.73887
C          C       0.56284   0.08013   0.76113
C          C       0.44479   0.62564   0.66006
C          C       0.55521   0.12564   0.83994
C          C       0.39835   0.67089   0.66285
C          C       0.60165   0.17089   0.83715
C          C       0.52661   0.51953   0.65904
C          C       0.47339   0.01953   0.84096
N          N       0.98159   0.51000   0.74266
N          N       0.01841   0.01000   0.75734
H          H       0.10176   0.76886   0.71583
H          H       0.89824   0.26886   0.78417
H          H       0.40861   0.85124   0.64246
H          H       0.59139   0.35124   0.85754
H          H       0.48691   0.93498   0.67422
H          H       0.51309   0.43498   0.82578
H          H       0.36052   0.98766   0.97685
H          H       0.63948   0.48766   0.52315
H          H       0.28506   0.90275   0.95004
H          H       0.71494   0.40275   0.54996
H          H       0.20507   0.91182   0.60359
H          H       0.79493   0.41182   0.89641
H          H       0.12383   0.99308   0.61108
H          H       0.87617   0.49308   0.88891
H          H       0.01211   0.91568   0.90512
H          H       0.98789   0.41568   0.59488
H          H       0.09566   0.83626   0.90259
H          H       0.90434   0.33626   0.59742
H          H       0.96556   0.99517   0.92550
H          H       0.03444   0.49517   0.57450
H          H       0.39819   0.77266   0.78382
H          H       0.60181   0.27266   0.71618
H          H       0.09136   0.69030   0.85730
H          H       0.90864   0.19030   0.64270
H          H       0.01308   0.60656   0.82568
H          H       0.98692   0.10656   0.67432
H          H       0.13942   0.55382   0.52304
H          H       0.86058   0.05382   0.97696
H          H       0.21487   0.63874   0.54971
H          H       0.78513   0.13874   0.95029
H          H       0.29487   0.62972   0.89616
H          H       0.70513   0.12972   0.60384
H          H       0.37614   0.54846   0.88880
H          H       0.62386   0.04846   0.61120
H          H       0.48787   0.62581   0.59471
H          H       0.51213   0.12581   0.90529
H          H       0.40430   0.70524   0.59713
H          H       0.59570   0.20524   0.90287
H          H       0.53446   0.54632   0.57448
H          H       0.46554   0.04632   0.92552
