data_crystal

_cell_length_a    16.94880
_cell_length_b    24.95850
_cell_length_c    9.04160
_cell_angle_alpha 90.00000
_cell_angle_beta  120.00000
_cell_angle_gamma 90.00000

_space_group_name_Hall 'P 1'
_space_group_name_H-M_alt  'P 1'

loop_
_symmetry_equiv_pos_as_xyz
'x,y,z'

loop_
_atom_site_label
_atom_site_type_symbol
_atom_site_fract_x
_atom_site_fract_y
_atom_site_fract_z
C          C       0.53557   0.54903   0.27738
C          C       0.53557   0.45097   0.27738
C          C       0.03557   0.04903   0.27738
C          C       0.03557   0.95097   0.27738
C          C       0.45061   0.54900   0.25939
C          C       0.45061   0.45100   0.25939
C          C       0.95061   0.04900   0.25939
C          C       0.95061   0.95100   0.25939
C          C       0.58435   0.59907   0.28014
C          C       0.58435   0.40093   0.28014
C          C       0.08435   0.09907   0.28014
C          C       0.08435   0.90093   0.28014
C          C       0.40142   0.59924   0.24103
C          C       0.40142   0.40076   0.24103
C          C       0.90142   0.09924   0.24103
C          C       0.90142   0.90076   0.24103
C          C       0.64076   0.60248   0.19895
C          C       0.64076   0.39752   0.19895
C          C       0.14076   0.10248   0.19895
C          C       0.14076   0.89752   0.19895
C          C       0.68670   0.64821   0.19717
C          C       0.68670   0.35179   0.19717
C          C       0.18670   0.14821   0.19717
C          C       0.18670   0.85179   0.19717
C          C       0.67718   0.69304   0.27606
C          C       0.67718   0.30696   0.27606
C          C       0.17718   0.19304   0.27606
C          C       0.17718   0.80696   0.27606
C          C       0.62231   0.68883   0.36070
C          C       0.62231   0.31117   0.36070
C          C       0.12231   0.18883   0.36070
C          C       0.12231   0.81117   0.36070
C          C       0.57694   0.64293   0.36265
C          C       0.57694   0.35707   0.36265
C          C       0.07694   0.14293   0.36265
C          C       0.07694   0.85707   0.36265
C          C       0.41114   0.63842   0.14686
C          C       0.41114   0.36158   0.14686
C          C       0.91114   0.13842   0.14686
C          C       0.91114   0.86158   0.14686
C          C       0.36600   0.68514   0.13173
C          C       0.36600   0.31486   0.13173
C          C       0.86600   0.18514   0.13173
C          C       0.86600   0.81486   0.13173
C          C       0.30896   0.69466   0.20986
C          C       0.30896   0.30534   0.20986
C          C       0.80896   0.19466   0.20986
C          C       0.80896   0.80534   0.20986
C          C       0.29758   0.65439   0.30058
C          C       0.29758   0.34561   0.30058
C          C       0.79758   0.15439   0.30058
C          C       0.79758   0.84561   0.30058
C          C       0.34259   0.60762   0.31566
C          C       0.34259   0.39238   0.31566
C          C       0.84259   0.10762   0.31566
C          C       0.84259   0.89238   0.31566
N          N       0.22042   0.75797   0.28300
N          N       0.22042   0.24203   0.28300
N          N       0.72042   0.25797   0.28300
N          N       0.72042   0.74203   0.28300
C          C       0.76317   0.24560   0.19614
C          C       0.76317   0.75440   0.19614
C          C       0.26317   0.74560   0.19614
C          C       0.26317   0.25440   0.19614
H          H       0.64776   0.56887   0.13265
H          H       0.64776   0.43113   0.13265
H          H       0.14776   0.06887   0.13265
H          H       0.14776   0.93113   0.13265
H          H       0.73047   0.64869   0.13310
H          H       0.73047   0.35131   0.13310
H          H       0.23047   0.14869   0.13310
H          H       0.23047   0.85131   0.13310
H          H       0.61443   0.72266   0.42537
H          H       0.61443   0.27734   0.42537
H          H       0.11443   0.22266   0.42537
H          H       0.11443   0.77734   0.42537
H          H       0.53500   0.64064   0.43023
H          H       0.53500   0.35936   0.43023
H          H       0.03500   0.14064   0.43023
H          H       0.03500   0.85936   0.43023
H          H       0.45448   0.63190   0.08311
H          H       0.45448   0.36810   0.08311
H          H       0.95448   0.13190   0.08311
H          H       0.95448   0.86810   0.08311
H          H       0.37627   0.71537   0.05865
H          H       0.37627   0.28463   0.05865
H          H       0.87627   0.21537   0.05865
H          H       0.87627   0.78463   0.05865
H          H       0.25254   0.66033   0.36097
H          H       0.25254   0.33967   0.36097
H          H       0.75254   0.16033   0.36097
H          H       0.75254   0.83967   0.36097
H          H       0.33314   0.57741   0.38936
H          H       0.33314   0.42259   0.38936
H          H       0.83314   0.07741   0.38936
H          H       0.83314   0.92259   0.38936
H          H       0.76950   0.27155   0.10745
H          H       0.76950   0.72845   0.10745
H          H       0.26950   0.77155   0.10745
H          H       0.26950   0.22845   0.10745
C          C       0.41034   0.50000   0.25322
C          C       0.91034   0.00000   0.25322
C          C       0.57608   0.50000   0.28879
C          C       0.07608   0.00000   0.28879
H          H       0.34397   0.50000   0.23508
H          H       0.84397   0.00000   0.23508
H          H       0.64241   0.50000   0.30677
H          H       0.14241   0.00000   0.30677
C          C       0.53557   0.54903   0.77738
C          C       0.53557   0.45097   0.77738
C          C       0.03557   0.04903   0.77738
C          C       0.03557   0.95097   0.77738
C          C       0.45061   0.54900   0.75940
C          C       0.45061   0.45100   0.75940
C          C       0.95061   0.04900   0.75940
C          C       0.95061   0.95100   0.75940
C          C       0.58435   0.59907   0.78015
C          C       0.58435   0.40093   0.78015
C          C       0.08435   0.09907   0.78015
C          C       0.08435   0.90093   0.78015
C          C       0.40142   0.59924   0.74103
C          C       0.40142   0.40076   0.74103
C          C       0.90142   0.09924   0.74103
C          C       0.90142   0.90076   0.74103
C          C       0.64076   0.60248   0.69895
C          C       0.64076   0.39752   0.69895
C          C       0.14076   0.10248   0.69895
C          C       0.14076   0.89752   0.69895
C          C       0.68670   0.64821   0.69717
C          C       0.68670   0.35179   0.69717
C          C       0.18670   0.14821   0.69717
C          C       0.18670   0.85179   0.69717
C          C       0.67718   0.69304   0.77606
C          C       0.67718   0.30696   0.77606
C          C       0.17718   0.19304   0.77606
C          C       0.17718   0.80696   0.77606
C          C       0.62231   0.68883   0.86071
C          C       0.62231   0.31117   0.86071
C          C       0.12231   0.18883   0.86071
C          C       0.12231   0.81117   0.86071
C          C       0.57694   0.64293   0.86265
C          C       0.57694   0.35707   0.86265
C          C       0.07694   0.14293   0.86265
C          C       0.07694   0.85707   0.86265
C          C       0.41114   0.63842   0.64686
C          C       0.41114   0.36158   0.64686
C          C       0.91114   0.13842   0.64686
C          C       0.91114   0.86158   0.64686
C          C       0.36600   0.68514   0.63172
C          C       0.36600   0.31486   0.63172
C          C       0.86600   0.18514   0.63172
C          C       0.86600   0.81486   0.63172
C          C       0.30896   0.69466   0.70987
C          C       0.30896   0.30534   0.70987
C          C       0.80896   0.19466   0.70987
C          C       0.80896   0.80534   0.70987
C          C       0.29758   0.65439   0.80058
C          C       0.29758   0.34561   0.80058
C          C       0.79758   0.15439   0.80058
C          C       0.79758   0.84561   0.80058
C          C       0.34259   0.60762   0.81567
C          C       0.34259   0.39238   0.81567
C          C       0.84259   0.10762   0.81567
C          C       0.84259   0.89238   0.81567
N          N       0.22042   0.75797   0.78300
N          N       0.22042   0.24203   0.78300
N          N       0.72042   0.25797   0.78300
N          N       0.72042   0.74203   0.78300
C          C       0.76317   0.24560   0.69614
C          C       0.76317   0.75440   0.69614
C          C       0.26317   0.74560   0.69614
C          C       0.26317   0.25440   0.69614
H          H       0.64776   0.56887   0.63265
H          H       0.64776   0.43113   0.63265
H          H       0.14776   0.06887   0.63265
H          H       0.14776   0.93113   0.63265
H          H       0.73047   0.64869   0.63310
H          H       0.73047   0.35131   0.63310
H          H       0.23047   0.14869   0.63310
H          H       0.23047   0.85131   0.63310
H          H       0.61443   0.72266   0.92537
H          H       0.61443   0.27734   0.92537
H          H       0.11443   0.22266   0.92537
H          H       0.11443   0.77734   0.92537
H          H       0.53500   0.64064   0.93023
H          H       0.53500   0.35936   0.93023
H          H       0.03500   0.14064   0.93023
H          H       0.03500   0.85936   0.93023
H          H       0.45448   0.63190   0.58311
H          H       0.45448   0.36810   0.58311
H          H       0.95448   0.13190   0.58311
H          H       0.95448   0.86810   0.58311
H          H       0.37627   0.71537   0.55864
H          H       0.37627   0.28463   0.55864
H          H       0.87627   0.21537   0.55864
H          H       0.87627   0.78463   0.55864
H          H       0.25254   0.66033   0.86098
H          H       0.25254   0.33967   0.86098
H          H       0.75254   0.16033   0.86098
H          H       0.75254   0.83967   0.86098
H          H       0.33314   0.57741   0.88936
H          H       0.33314   0.42259   0.88936
H          H       0.83314   0.07741   0.88936
H          H       0.83314   0.92259   0.88936
H          H       0.76950   0.27155   0.60746
H          H       0.76950   0.72845   0.60746
H          H       0.26950   0.77155   0.60746
H          H       0.26950   0.22845   0.60746
C          C       0.41034   0.50000   0.75322
C          C       0.91034   0.00000   0.75322
C          C       0.57608   0.50000   0.78879
C          C       0.07608   0.00000   0.78879
H          H       0.34397   0.50000   0.73508
H          H       0.84397   0.00000   0.73508
H          H       0.64241   0.50000   0.80677
H          H       0.14241   0.00000   0.80677
