data_crystal

_cell_length_a    16.94680
_cell_length_b    24.84320
_cell_length_c    9.01300
_cell_angle_alpha 90.00000
_cell_angle_beta  104.31600
_cell_angle_gamma 90.00000

_space_group_name_Hall 'P 1'
_space_group_name_H-M_alt  'P 1'

loop_
_symmetry_equiv_pos_as_xyz
 'x,y,z'

loop_
_atom_site_label
_atom_site_type_symbol
_atom_site_fract_x
_atom_site_fract_y
_atom_site_fract_z
C          C       0.54232   0.55158   0.25550
C          C       0.45768   0.55158   0.24450
C          C       0.04232   0.05158   0.25550
C          C       0.95768   0.05158   0.24450
C          C       0.41744   0.50217   0.23736
C          C       0.58256   0.50217   0.26264
C          C       0.91744   0.00217   0.23736
C          C       0.08256   0.00217   0.26264
C          C       0.45755   0.45288   0.24228
C          C       0.54245   0.45288   0.25772
C          C       0.95755   0.95288   0.24228
C          C       0.04245   0.95288   0.25772
C          C       0.59128   0.60191   0.26094
C          C       0.40872   0.60191   0.23906
C          C       0.09128   0.10191   0.26094
C          C       0.90872   0.10191   0.23906
C          C       0.59084   0.40204   0.27249
C          C       0.40916   0.40204   0.22751
C          C       0.09084   0.90204   0.27249
C          C       0.90916   0.90204   0.22751
C          C       0.64761   0.60616   0.18333
C          C       0.35239   0.60616   0.31666
C          C       0.14761   0.10616   0.18333
C          C       0.85239   0.10616   0.31666
C          C       0.69387   0.65211   0.18388
C          C       0.30613   0.65211   0.31612
C          C       0.19387   0.15211   0.18388
C          C       0.80613   0.15211   0.31612
C          C       0.68538   0.69569   0.26494
C          C       0.31462   0.69569   0.23506
C          C       0.18538   0.19569   0.26494
C          C       0.81462   0.19569   0.23506
C          C       0.63131   0.69062   0.34658
C          C       0.36869   0.69062   0.15342
C          C       0.13131   0.19062   0.34658
C          C       0.86869   0.19062   0.15342
C          C       0.58462   0.64483   0.34434
C          C       0.41538   0.64483   0.15566
C          C       0.08462   0.14483   0.34434
C          C       0.91538   0.14483   0.15566
C          C       0.58162   0.36221   0.36242
C          C       0.41838   0.36221   0.13758
C          C       0.08162   0.86221   0.36242
C          C       0.91838   0.86221   0.13758
C          C       0.62812   0.31582   0.37681
C          C       0.37188   0.31582   0.12319
C          C       0.12812   0.81582   0.37681
C          C       0.87188   0.81582   0.12319
C          C       0.68370   0.30696   0.29948
C          C       0.31630   0.30696   0.20052
C          C       0.18370   0.80696   0.29948
C          C       0.81630   0.80696   0.20052
C          C       0.69375   0.34723   0.21105
C          C       0.30625   0.34723   0.28895
C          C       0.19375   0.84723   0.21105
C          C       0.80625   0.84723   0.28895
C          C       0.64872   0.39415   0.19928
C          C       0.35128   0.39415   0.30072
C          C       0.14872   0.89415   0.19928
C          C       0.85128   0.89415   0.30072
C          C       0.23020   0.75661   0.31148
C          C       0.76980   0.75661   0.18852
C          C       0.73020   0.25661   0.31148
C          C       0.26980   0.25661   0.18852
N          N       0.77045   0.24442   0.22470
N          N       0.22955   0.24442   0.27530
N          N       0.27045   0.74442   0.22470
N          N       0.72955   0.74442   0.27530
H          H       0.35128   0.50222   0.22209
H          H       0.64872   0.50222   0.27791
H          H       0.85128   0.00222   0.22209
H          H       0.14872   0.00222   0.27791
H          H       0.65439   0.57238   0.11972
H          H       0.34561   0.57238   0.38028
H          H       0.15439   0.07238   0.11972
H          H       0.84561   0.07238   0.38028
H          H       0.73680   0.65364   0.12091
H          H       0.26320   0.65364   0.37910
H          H       0.23680   0.15364   0.12091
H          H       0.76320   0.15364   0.37910
H          H       0.62549   0.72371   0.41256
H          H       0.37451   0.72371   0.08744
H          H       0.12549   0.22371   0.41256
H          H       0.87451   0.22371   0.08744
H          H       0.54387   0.64192   0.41078
H          H       0.45613   0.64192   0.08922
H          H       0.04387   0.14192   0.41078
H          H       0.95613   0.14192   0.08922
H          H       0.53848   0.36812   0.42378
H          H       0.46152   0.36812   0.07622
H          H       0.03848   0.86812   0.42378
H          H       0.96152   0.86812   0.07622
H          H       0.62079   0.28539   0.44877
H          H       0.37921   0.28539   0.05123
H          H       0.12079   0.78539   0.44877
H          H       0.87921   0.78539   0.05123
H          H       0.73819   0.34142   0.15199
H          H       0.26181   0.34142   0.34800
H          H       0.23819   0.84142   0.15199
H          H       0.76181   0.84142   0.34800
H          H       0.65779   0.42523   0.13029
H          H       0.34221   0.42523   0.36971
H          H       0.15779   0.92523   0.13029
H          H       0.84221   0.92523   0.36971
H          H       0.22804   0.73030   0.39700
H          H       0.77196   0.73030   0.10300
H          H       0.72804   0.23030   0.39700
H          H       0.27196   0.23030   0.10300
C          C       0.54232   0.55158   0.75550
C          C       0.45768   0.55158   0.74450
C          C       0.04232   0.05158   0.75550
C          C       0.95768   0.05158   0.74450
C          C       0.41744   0.50217   0.73736
C          C       0.58256   0.50217   0.76264
C          C       0.91744   0.00217   0.73736
C          C       0.08256   0.00217   0.76264
C          C       0.45755   0.45288   0.74228
C          C       0.54245   0.45288   0.75772
C          C       0.95755   0.95288   0.74228
C          C       0.04245   0.95288   0.75772
C          C       0.59128   0.60191   0.76094
C          C       0.40872   0.60191   0.73906
C          C       0.09128   0.10191   0.76094
C          C       0.90872   0.10191   0.73906
C          C       0.59084   0.40204   0.77250
C          C       0.40916   0.40204   0.72750
C          C       0.09084   0.90204   0.77250
C          C       0.90916   0.90204   0.72750
C          C       0.64761   0.60616   0.68333
C          C       0.35239   0.60616   0.81666
C          C       0.14761   0.10616   0.68333
C          C       0.85239   0.10616   0.81666
C          C       0.69387   0.65211   0.68388
C          C       0.30613   0.65211   0.81612
C          C       0.19387   0.15211   0.68388
C          C       0.80613   0.15211   0.81612
C          C       0.68538   0.69569   0.76494
C          C       0.31462   0.69569   0.73506
C          C       0.18538   0.19569   0.76494
C          C       0.81462   0.19569   0.73506
C          C       0.63131   0.69062   0.84658
C          C       0.36869   0.69062   0.65342
C          C       0.13131   0.19062   0.84658
C          C       0.86869   0.19062   0.65342
C          C       0.58462   0.64483   0.84434
C          C       0.41538   0.64483   0.65566
C          C       0.08462   0.14483   0.84434
C          C       0.91538   0.14483   0.65566
C          C       0.58162   0.36221   0.86242
C          C       0.41838   0.36221   0.63758
C          C       0.08162   0.86221   0.86242
C          C       0.91838   0.86221   0.63758
C          C       0.62812   0.31582   0.87681
C          C       0.37188   0.31582   0.62319
C          C       0.12812   0.81582   0.87681
C          C       0.87188   0.81582   0.62319
C          C       0.68370   0.30696   0.79948
C          C       0.31630   0.30696   0.70052
C          C       0.18370   0.80696   0.79948
C          C       0.81630   0.80696   0.70052
C          C       0.69375   0.34723   0.71104
C          C       0.30625   0.34723   0.78895
C          C       0.19375   0.84723   0.71104
C          C       0.80625   0.84723   0.78895
C          C       0.64872   0.39415   0.69928
C          C       0.35128   0.39415   0.80072
C          C       0.14872   0.89415   0.69928
C          C       0.85128   0.89415   0.80072
C          C       0.23020   0.75661   0.81147
C          C       0.76980   0.75661   0.68852
C          C       0.73020   0.25661   0.81147
C          C       0.26980   0.25661   0.68852
N          N       0.77045   0.24442   0.72471
N          N       0.22955   0.24442   0.77529
N          N       0.27045   0.74442   0.72471
N          N       0.72955   0.74442   0.77529
H          H       0.35128   0.50222   0.72209
H          H       0.64872   0.50222   0.77791
H          H       0.85128   0.00222   0.72209
H          H       0.14872   0.00222   0.77791
H          H       0.65439   0.57238   0.61971
H          H       0.34561   0.57238   0.88028
H          H       0.15439   0.07238   0.61971
H          H       0.84561   0.07238   0.88028
H          H       0.73680   0.65364   0.62090
H          H       0.26320   0.65364   0.87909
H          H       0.23680   0.15364   0.62090
H          H       0.76320   0.15364   0.87909
H          H       0.62549   0.72371   0.91256
H          H       0.37451   0.72371   0.58744
H          H       0.12549   0.22371   0.91256
H          H       0.87451   0.22371   0.58744
H          H       0.54387   0.64192   0.91078
H          H       0.45613   0.64192   0.58922
H          H       0.04387   0.14192   0.91078
H          H       0.95613   0.14192   0.58922
H          H       0.53848   0.36812   0.92378
H          H       0.46152   0.36812   0.57622
H          H       0.03848   0.86812   0.92378
H          H       0.96152   0.86812   0.57622
H          H       0.62079   0.28539   0.94878
H          H       0.37921   0.28539   0.55122
H          H       0.12079   0.78539   0.94878
H          H       0.87921   0.78539   0.55122
H          H       0.73819   0.34142   0.65199
H          H       0.26181   0.34142   0.84800
H          H       0.23819   0.84142   0.65199
H          H       0.76181   0.84142   0.84800
H          H       0.65779   0.42523   0.63029
H          H       0.34221   0.42523   0.86971
H          H       0.15779   0.92523   0.63029
H          H       0.84221   0.92523   0.86971
H          H       0.22804   0.73030   0.89700
H          H       0.77196   0.73030   0.60300
H          H       0.72804   0.23030   0.89700
H          H       0.27196   0.23030   0.60300
