data_crystal

_cell_length_a    16.97660
_cell_length_b    25.06190
_cell_length_c    8.92680
_cell_angle_alpha 90.00000
_cell_angle_beta  104.31600
_cell_angle_gamma 90.00000

_symmetry_space_group_name_Hall 'P 1'
_symmetry_space_group_name_H-M  'P 1'

loop_
_symmetry_equiv_pos_as_xyz
 'x,y,z'

loop_
_atom_site_label
_atom_site_type_symbol
_atom_site_fract_x
_atom_site_fract_y
_atom_site_fract_z
C          C       0.54245   0.54925   0.25826
C          C       0.45755   0.54925   0.24174
C          C       0.45755   0.45075   0.24174
C          C       0.54245   0.45075   0.25826
C          C       0.59115   0.59944   0.27285
C          C       0.40885   0.59944   0.22715
C          C       0.40885   0.40056   0.22715
C          C       0.59115   0.40056   0.27285
C          C       0.64886   0.60747   0.19948
C          C       0.35114   0.60747   0.30052
C          C       0.35114   0.39253   0.30052
C          C       0.64886   0.39253   0.19948
C          C       0.69374   0.65421   0.21130
C          C       0.30626   0.65421   0.28870
C          C       0.30626   0.34579   0.28870
C          C       0.69374   0.34579   0.21130
C          C       0.68416   0.69476   0.29913
C          C       0.31584   0.69476   0.20087
C          C       0.31584   0.30524   0.20087
C          C       0.68416   0.30524   0.29913
C          C       0.62852   0.68586   0.37612
C          C       0.37148   0.68586   0.12388
C          C       0.37148   0.31414   0.12388
C          C       0.62852   0.31414   0.37612
C          C       0.58254   0.63951   0.36245
C          C       0.41746   0.63951   0.13755
C          C       0.41746   0.36049   0.13755
C          C       0.58254   0.36049   0.36245
C          C       0.73033   0.25509   0.31099
C          C       0.26967   0.25509   0.18902
C          C       0.26967   0.74491   0.18902
C          C       0.73033   0.74491   0.31099
N          N       0.77086   0.75836   0.22611
N          N       0.22914   0.75836   0.27389
N          N       0.22914   0.24164   0.27389
N          N       0.77086   0.24164   0.22611
C          C       0.04241   0.04937   0.25750
C          C       0.95759   0.04937   0.24250
C          C       0.95759   0.95063   0.24250
C          C       0.04241   0.95063   0.25750
C          C       0.09157   0.09912   0.26383
C          C       0.90843   0.09912   0.23617
C          C       0.90843   0.90088   0.23617
C          C       0.09157   0.90088   0.26383
C          C       0.14766   0.10360   0.18606
C          C       0.85234   0.10360   0.31394
C          C       0.85234   0.89640   0.31394
C          C       0.14766   0.89640   0.18606
C          C       0.19361   0.14939   0.18669
C          C       0.80639   0.14939   0.31331
C          C       0.80639   0.85061   0.31331
C          C       0.19361   0.85061   0.18669
C          C       0.18528   0.19331   0.26649
C          C       0.81472   0.19331   0.23351
C          C       0.81472   0.80669   0.23351
C          C       0.18528   0.80669   0.26649
C          C       0.13129   0.18807   0.34822
C          C       0.86871   0.18807   0.15179
C          C       0.86871   0.81193   0.15179
C          C       0.13129   0.81193   0.34822
C          C       0.08533   0.14224   0.34666
C          C       0.91467   0.14224   0.15334
C          C       0.91467   0.85776   0.15334
C          C       0.08533   0.85776   0.34666
H          H       0.65755   0.57716   0.13009
H          H       0.34245   0.57716   0.36991
H          H       0.34245   0.42284   0.36991
H          H       0.65755   0.42284   0.13009
H          H       0.73726   0.65965   0.15242
H          H       0.26274   0.65965   0.34759
H          H       0.26274   0.34035   0.34759
H          H       0.73726   0.34035   0.15242
H          H       0.62036   0.71590   0.44664
H          H       0.37964   0.71590   0.05336
H          H       0.37964   0.28410   0.05336
H          H       0.62036   0.28410   0.44664
H          H       0.54012   0.63400   0.42345
H          H       0.45988   0.63400   0.07655
H          H       0.45988   0.36600   0.07655
H          H       0.54012   0.36600   0.42345
H          H       0.72739   0.22976   0.39686
H          H       0.27261   0.22976   0.10315
H          H       0.27261   0.77024   0.10315
H          H       0.72739   0.77024   0.39686
H          H       0.15430   0.07085   0.12160
H          H       0.84570   0.07085   0.37840
H          H       0.84570   0.92915   0.37840
H          H       0.15430   0.92915   0.12160
H          H       0.23599   0.15070   0.12474
H          H       0.76401   0.15070   0.37527
H          H       0.76401   0.84930   0.37527
H          H       0.23599   0.84930   0.12474
H          H       0.12473   0.22073   0.41290
H          H       0.87527   0.22073   0.08710
H          H       0.87527   0.77927   0.08710
H          H       0.12473   0.77927   0.41290
H          H       0.04502   0.13965   0.41206
H          H       0.95498   0.13965   0.08794
H          H       0.95498   0.86035   0.08794
H          H       0.04502   0.86035   0.41206
C          C       0.41774   0.50000   0.23467
C          C       0.58226   0.50000   0.26533
H          H       0.35243   0.50000   0.21799
H          H       0.64757   0.50000   0.28201
C          C       0.91802   0.00000   0.23505
C          C       0.08198   0.00000   0.26495
H          H       0.85259   0.00000   0.21718
H          H       0.14741   0.00000   0.28282
C          C       0.54245   0.54925   0.75826
C          C       0.45755   0.54925   0.74174
C          C       0.45755   0.45075   0.74174
C          C       0.54245   0.45075   0.75826
C          C       0.59115   0.59944   0.77285
C          C       0.40885   0.59944   0.72715
C          C       0.40885   0.40056   0.72715
C          C       0.59115   0.40056   0.77285
C          C       0.64886   0.60747   0.69948
C          C       0.35114   0.60747   0.80053
C          C       0.35114   0.39253   0.80053
C          C       0.64886   0.39253   0.69948
C          C       0.69374   0.65421   0.71131
C          C       0.30626   0.65421   0.78870
C          C       0.30626   0.34579   0.78870
C          C       0.69374   0.34579   0.71131
C          C       0.68416   0.69476   0.79914
C          C       0.31584   0.69476   0.70086
C          C       0.31584   0.30524   0.70086
C          C       0.68416   0.30524   0.79914
C          C       0.62852   0.68586   0.87612
C          C       0.37148   0.68586   0.62388
C          C       0.37148   0.31414   0.62388
C          C       0.62852   0.31414   0.87612
C          C       0.58254   0.63951   0.86245
C          C       0.41746   0.63951   0.63755
C          C       0.41746   0.36049   0.63755
C          C       0.58254   0.36049   0.86245
C          C       0.73033   0.25509   0.81099
C          C       0.26967   0.25509   0.68902
C          C       0.26967   0.74491   0.68902
C          C       0.73033   0.74491   0.81099
N          N       0.77086   0.75836   0.72611
N          N       0.22914   0.75836   0.77389
N          N       0.22914   0.24164   0.77389
N          N       0.77086   0.24164   0.72611
C          C       0.04241   0.04937   0.75750
C          C       0.95759   0.04937   0.74250
C          C       0.95759   0.95063   0.74250
C          C       0.04241   0.95063   0.75750
C          C       0.09157   0.09912   0.76384
C          C       0.90843   0.09912   0.73617
C          C       0.90843   0.90088   0.73617
C          C       0.09157   0.90088   0.76384
C          C       0.14766   0.10360   0.68606
C          C       0.85234   0.10360   0.81394
C          C       0.85234   0.89640   0.81394
C          C       0.14766   0.89640   0.68606
C          C       0.19361   0.14939   0.68669
C          C       0.80639   0.14939   0.81331
C          C       0.80639   0.85061   0.81331
C          C       0.19361   0.85061   0.68669
C          C       0.18528   0.19331   0.76649
C          C       0.81472   0.19331   0.73352
C          C       0.81472   0.80669   0.73352
C          C       0.18528   0.80669   0.76649
C          C       0.13129   0.18807   0.84822
C          C       0.86871   0.18807   0.65179
C          C       0.86871   0.81193   0.65179
C          C       0.13129   0.81193   0.84822
C          C       0.08533   0.14224   0.84666
C          C       0.91467   0.14224   0.65334
C          C       0.91467   0.85776   0.65334
C          C       0.08533   0.85776   0.84666
H          H       0.65755   0.57716   0.63009
H          H       0.34245   0.57716   0.86991
H          H       0.34245   0.42284   0.86991
H          H       0.65755   0.42284   0.63009
H          H       0.73726   0.65965   0.65241
H          H       0.26274   0.65965   0.84759
H          H       0.26274   0.34035   0.84759
H          H       0.73726   0.34035   0.65241
H          H       0.62036   0.71590   0.94664
H          H       0.37964   0.71590   0.55336
H          H       0.37964   0.28410   0.55336
H          H       0.62036   0.28410   0.94664
H          H       0.54012   0.63400   0.92345
H          H       0.45988   0.63400   0.57656
H          H       0.45988   0.36600   0.57656
H          H       0.54012   0.36600   0.92345
H          H       0.72739   0.22976   0.89686
H          H       0.27261   0.22976   0.60315
H          H       0.27261   0.77024   0.60315
H          H       0.72739   0.77024   0.89686
H          H       0.15430   0.07085   0.62160
H          H       0.84570   0.07085   0.87840
H          H       0.84570   0.92915   0.87840
H          H       0.15430   0.92915   0.62160
H          H       0.23599   0.15070   0.62474
H          H       0.76401   0.15070   0.87527
H          H       0.76401   0.84930   0.87527
H          H       0.23599   0.84930   0.62474
H          H       0.12473   0.22073   0.91290
H          H       0.87527   0.22073   0.58710
H          H       0.87527   0.77927   0.58710
H          H       0.12473   0.77927   0.91290
H          H       0.04502   0.13965   0.91206
H          H       0.95498   0.13965   0.58795
H          H       0.95498   0.86035   0.58795
H          H       0.04502   0.86035   0.91206
C          C       0.41774   0.50000   0.73467
C          C       0.58226   0.50000   0.76533
H          H       0.35243   0.50000   0.71799
H          H       0.64757   0.50000   0.78201
C          C       0.91802   0.00000   0.73506
C          C       0.08198   0.00000   0.76494
H          H       0.85259   0.00000   0.71718
H          H       0.14741   0.00000   0.78282
