data_crystal

_cell_length_a    30.05680
_cell_length_b    30.05680
_cell_length_c    8.53200
_cell_angle_alpha 90.00000
_cell_angle_beta  90.00000
_cell_angle_gamma 120.00000

_space_group_name_Hall 'P 1'
_space_group_name_H-M_alt  'P 1'

loop_
_symmetry_equiv_pos_as_xyz
'x,y,z'

loop_
_atom_site_label
_atom_site_type_symbol
_atom_site_fract_x
_atom_site_fract_y
_atom_site_fract_z
C          C       0.54673   0.04655   0.24041
C          C       0.95345   0.50018   0.24041
C          C       0.49982   0.45327   0.24041
C          C       0.50053   0.04766   0.25127
C          C       0.95234   0.45287   0.25127
C          C       0.54713   0.49947   0.25127
C          C       0.45379   0.00181   0.24487
C          C       0.99819   0.45198   0.24487
C          C       0.54802   0.54621   0.24487
C          C       0.45081   0.95432   0.22975
C          C       0.04568   0.49649   0.22975
C          C       0.50351   0.54919   0.22975
C          C       0.49667   0.95309   0.21392
C          C       0.04691   0.54358   0.21392
C          C       0.45642   0.50333   0.21392
C          C       0.54338   0.99914   0.21822
C          C       0.00086   0.54424   0.21822
C          C       0.45576   0.45662   0.21822
C          C       0.59893   0.09328   0.25191
C          C       0.90672   0.50565   0.25191
C          C       0.49435   0.40107   0.25191
C          C       0.49945   0.09611   0.27401
C          C       0.90389   0.40334   0.27401
C          C       0.59666   0.50055   0.27401
C          C       0.49764   0.90401   0.20081
C          C       0.09599   0.59363   0.20081
C          C       0.40637   0.50236   0.20081
C          C       0.39932   0.90679   0.23412
C          C       0.09321   0.49253   0.23412
C          C       0.50747   0.60068   0.23412
C          C       0.63758   0.09132   0.32341
C          C       0.90868   0.54626   0.32341
C          C       0.45374   0.36242   0.32341
C          C       0.68659   0.13356   0.33232
C          C       0.86644   0.55303   0.33232
C          C       0.44697   0.31341   0.33232
C          C       0.69811   0.17994   0.27302
C          C       0.82006   0.51817   0.27302
C          C       0.48183   0.30189   0.27302
C          C       0.65994   0.18216   0.20061
C          C       0.81784   0.47778   0.20061
C          C       0.52222   0.34006   0.20061
C          C       0.61129   0.13947   0.19026
C          C       0.86053   0.47182   0.19026
C          C       0.52818   0.38871   0.19026
C          C       0.36545   0.89963   0.33581
C          C       0.10037   0.46582   0.33581
C          C       0.53418   0.63455   0.33581
C          C       0.31862   0.85459   0.34543
C          C       0.14541   0.46403   0.34543
C          C       0.53597   0.68138   0.34543
C          C       0.30361   0.81566   0.25228
C          C       0.18434   0.48795   0.25228
C          C       0.51205   0.69639   0.25228
C          C       0.33689   0.82383   0.14822
C          C       0.17617   0.51306   0.14822
C          C       0.48694   0.66311   0.14822
C          C       0.38400   0.86856   0.13944
C          C       0.13144   0.51544   0.13944
C          C       0.48456   0.61600   0.13944
C          C       0.52705   0.12857   0.37680
C          C       0.87143   0.39848   0.37680
C          C       0.60152   0.47295   0.37680
C          C       0.52904   0.17525   0.39287
C          C       0.82475   0.35379   0.39287
C          C       0.64621   0.47096   0.39287
C          C       0.50224   0.19011   0.30857
C          C       0.80989   0.31213   0.30857
C          C       0.68787   0.49776   0.30857
C          C       0.47240   0.15620   0.20999
C          C       0.84380   0.31620   0.20999
C          C       0.68380   0.52760   0.20999
C          C       0.47100   0.10982   0.19280
C          C       0.89018   0.36118   0.19280
C          C       0.63882   0.52900   0.19280
C          C       0.47345   0.86497   0.29296
C          C       0.13503   0.60848   0.29296
C          C       0.39152   0.52655   0.29296
C          C       0.47611   0.82033   0.28463
C          C       0.17967   0.65578   0.28463
C          C       0.34422   0.52389   0.28463
C          C       0.50338   0.81363   0.18344
C          C       0.18637   0.68975   0.18344
C          C       0.31025   0.49662   0.18344
C          C       0.52642   0.85212   0.08886
C          C       0.14788   0.67430   0.08886
C          C       0.32570   0.47358   0.08886
C          C       0.52436   0.89703   0.09895
C          C       0.10297   0.62733   0.09895
C          C       0.37267   0.47564   0.09895
C          C       0.75809   0.26621   0.31774
C          C       0.73379   0.49188   0.31774
C          C       0.50812   0.24191   0.31774
N          N       0.74903   0.22215   0.27502
N          N       0.77785   0.52688   0.27502
N          N       0.47312   0.25097   0.27502
N          N       0.26256   0.49501   0.16737
N          N       0.50499   0.76755   0.16737
N          N       0.23245   0.73744   0.16737
C          C       0.23325   0.48776   0.26644
C          C       0.51224   0.74549   0.26644
C          C       0.25451   0.76675   0.26644
H          H       0.41821   0.00301   0.25520
H          H       0.99699   0.41520   0.25520
H          H       0.58480   0.58179   0.25520
H          H       0.57876   0.99768   0.20640
H          H       0.00232   0.58108   0.20640
H          H       0.41892   0.42124   0.20640
H          H       0.62906   0.05622   0.37560
H          H       0.94378   0.57284   0.37560
H          H       0.42716   0.37094   0.37560
H          H       0.71615   0.13125   0.38867
H          H       0.86875   0.58490   0.38867
H          H       0.41510   0.28385   0.38867
H          H       0.66873   0.21766   0.15060
H          H       0.78234   0.45107   0.15060
H          H       0.54893   0.33127   0.15060
H          H       0.58238   0.14258   0.13296
H          H       0.85742   0.43980   0.13296
H          H       0.56020   0.41762   0.13296
H          H       0.37654   0.92898   0.41144
H          H       0.07102   0.44756   0.41144
H          H       0.55244   0.62346   0.41144
H          H       0.29325   0.84958   0.42740
H          H       0.15042   0.44367   0.42740
H          H       0.55633   0.70675   0.42740
H          H       0.32616   0.79392   0.07465
H          H       0.20608   0.53224   0.07465
H          H       0.46776   0.67384   0.07465
H          H       0.40938   0.87385   0.05738
H          H       0.12615   0.53553   0.05738
H          H       0.46447   0.59062   0.05738
H          H       0.54798   0.11720   0.44331
H          H       0.88280   0.43078   0.44331
H          H       0.56922   0.45202   0.44331
H          H       0.55221   0.20076   0.47188
H          H       0.79924   0.35145   0.47188
H          H       0.64855   0.44779   0.47188
H          H       0.45146   0.16726   0.14273
H          H       0.83274   0.28420   0.14273
H          H       0.71580   0.54854   0.14273
H          H       0.44904   0.08488   0.11174
H          H       0.91512   0.36416   0.11174
H          H       0.63584   0.55096   0.11174
H          H       0.45291   0.86990   0.37458
H          H       0.13010   0.58301   0.37458
H          H       0.41699   0.54709   0.37458
H          H       0.45616   0.79004   0.35670
H          H       0.20996   0.66612   0.35670
H          H       0.33388   0.54384   0.35670
H          H       0.54728   0.84736   0.00792
H          H       0.15264   0.69992   0.00792
H          H       0.30008   0.45272   0.00792
H          H       0.54313   0.92698   0.02499
H          H       0.07302   0.61615   0.02499
H          H       0.38385   0.45687   0.02499
H          H       0.72742   0.27233   0.36185
H          H       0.72767   0.45509   0.36185
H          H       0.54491   0.27258   0.36185
H          H       0.24247   0.48042   0.36740
H          H       0.51958   0.76205   0.36740
H          H       0.23795   0.75753   0.36740
C          C       0.54673   0.04655   0.74041
C          C       0.95345   0.50018   0.74041
C          C       0.49982   0.45327   0.74041
C          C       0.50053   0.04766   0.75127
C          C       0.95234   0.45287   0.75127
C          C       0.54713   0.49947   0.75127
C          C       0.45379   0.00181   0.74487
C          C       0.99819   0.45198   0.74487
C          C       0.54802   0.54621   0.74487
C          C       0.45081   0.95432   0.72975
C          C       0.04568   0.49649   0.72975
C          C       0.50351   0.54919   0.72975
C          C       0.49667   0.95309   0.71392
C          C       0.04691   0.54358   0.71392
C          C       0.45642   0.50333   0.71392
C          C       0.54338   0.99914   0.71822
C          C       0.00086   0.54424   0.71822
C          C       0.45576   0.45662   0.71822
C          C       0.59893   0.09328   0.75191
C          C       0.90672   0.50565   0.75191
C          C       0.49435   0.40107   0.75191
C          C       0.49945   0.09611   0.77401
C          C       0.90389   0.40334   0.77401
C          C       0.59666   0.50055   0.77401
C          C       0.49764   0.90401   0.70081
C          C       0.09599   0.59363   0.70081
C          C       0.40637   0.50236   0.70081
C          C       0.39932   0.90679   0.73413
C          C       0.09321   0.49253   0.73413
C          C       0.50747   0.60068   0.73413
C          C       0.63758   0.09132   0.82341
C          C       0.90868   0.54626   0.82341
C          C       0.45374   0.36242   0.82341
C          C       0.68659   0.13356   0.83232
C          C       0.86644   0.55303   0.83232
C          C       0.44697   0.31341   0.83232
C          C       0.69811   0.17994   0.77302
C          C       0.82006   0.51817   0.77302
C          C       0.48183   0.30189   0.77302
C          C       0.65994   0.18216   0.70061
C          C       0.81784   0.47778   0.70061
C          C       0.52222   0.34006   0.70061
C          C       0.61129   0.13947   0.69026
C          C       0.86053   0.47182   0.69026
C          C       0.52818   0.38871   0.69026
C          C       0.36545   0.89963   0.83581
C          C       0.10037   0.46582   0.83581
C          C       0.53418   0.63455   0.83581
C          C       0.31862   0.85459   0.84543
C          C       0.14541   0.46403   0.84543
C          C       0.53597   0.68138   0.84543
C          C       0.30361   0.81566   0.75228
C          C       0.18434   0.48795   0.75228
C          C       0.51205   0.69639   0.75228
C          C       0.33689   0.82383   0.64822
C          C       0.17617   0.51306   0.64822
C          C       0.48694   0.66311   0.64822
C          C       0.38400   0.86856   0.63943
C          C       0.13144   0.51544   0.63943
C          C       0.48456   0.61600   0.63943
C          C       0.52705   0.12857   0.87680
C          C       0.87143   0.39848   0.87680
C          C       0.60152   0.47295   0.87680
C          C       0.52904   0.17525   0.89287
C          C       0.82475   0.35379   0.89287
C          C       0.64621   0.47096   0.89287
C          C       0.50224   0.19011   0.80857
C          C       0.80989   0.31213   0.80857
C          C       0.68787   0.49776   0.80857
C          C       0.47240   0.15620   0.71000
C          C       0.84380   0.31620   0.71000
C          C       0.68380   0.52760   0.71000
C          C       0.47100   0.10982   0.69280
C          C       0.89018   0.36118   0.69280
C          C       0.63882   0.52900   0.69280
C          C       0.47345   0.86497   0.79297
C          C       0.13503   0.60848   0.79297
C          C       0.39152   0.52655   0.79297
C          C       0.47611   0.82033   0.78463
C          C       0.17967   0.65578   0.78463
C          C       0.34422   0.52389   0.78463
C          C       0.50338   0.81363   0.68344
C          C       0.18637   0.68975   0.68344
C          C       0.31025   0.49662   0.68344
C          C       0.52642   0.85212   0.58886
C          C       0.14788   0.67430   0.58886
C          C       0.32570   0.47358   0.58886
C          C       0.52436   0.89703   0.59895
C          C       0.10297   0.62733   0.59895
C          C       0.37267   0.47564   0.59895
C          C       0.75809   0.26621   0.81774
C          C       0.73379   0.49188   0.81774
C          C       0.50812   0.24191   0.81774
N          N       0.74903   0.22215   0.77502
N          N       0.77785   0.52688   0.77502
N          N       0.47312   0.25097   0.77502
N          N       0.26256   0.49501   0.66736
N          N       0.50499   0.76755   0.66736
N          N       0.23245   0.73744   0.66736
C          C       0.23325   0.48776   0.76644
C          C       0.51224   0.74549   0.76644
C          C       0.25451   0.76675   0.76644
H          H       0.41821   0.00301   0.75520
H          H       0.99699   0.41520   0.75520
H          H       0.58480   0.58179   0.75520
H          H       0.57876   0.99768   0.70640
H          H       0.00232   0.58108   0.70640
H          H       0.41892   0.42124   0.70640
H          H       0.62906   0.05622   0.87560
H          H       0.94378   0.57284   0.87560
H          H       0.42716   0.37094   0.87560
H          H       0.71615   0.13125   0.88867
H          H       0.86875   0.58490   0.88867
H          H       0.41510   0.28385   0.88867
H          H       0.66873   0.21766   0.65060
H          H       0.78234   0.45107   0.65060
H          H       0.54893   0.33127   0.65060
H          H       0.58238   0.14258   0.63296
H          H       0.85742   0.43980   0.63296
H          H       0.56020   0.41762   0.63296
H          H       0.37654   0.92898   0.91144
H          H       0.07102   0.44756   0.91144
H          H       0.55244   0.62346   0.91144
H          H       0.29325   0.84958   0.92740
H          H       0.15042   0.44367   0.92740
H          H       0.55633   0.70675   0.92740
H          H       0.32616   0.79392   0.57465
H          H       0.20608   0.53224   0.57465
H          H       0.46776   0.67384   0.57465
H          H       0.40938   0.87385   0.55738
H          H       0.12615   0.53553   0.55738
H          H       0.46447   0.59062   0.55738
H          H       0.54798   0.11720   0.94331
H          H       0.88280   0.43078   0.94331
H          H       0.56922   0.45202   0.94331
H          H       0.55221   0.20076   0.97188
H          H       0.79924   0.35145   0.97188
H          H       0.64855   0.44779   0.97188
H          H       0.45146   0.16726   0.64272
H          H       0.83274   0.28420   0.64272
H          H       0.71580   0.54854   0.64272
H          H       0.44904   0.08488   0.61174
H          H       0.91512   0.36416   0.61174
H          H       0.63584   0.55096   0.61174
H          H       0.45291   0.86990   0.87458
H          H       0.13010   0.58301   0.87458
H          H       0.41699   0.54709   0.87458
H          H       0.45616   0.79004   0.85671
H          H       0.20996   0.66612   0.85671
H          H       0.33388   0.54384   0.85671
H          H       0.54728   0.84736   0.50792
H          H       0.15264   0.69992   0.50792
H          H       0.30008   0.45272   0.50792
H          H       0.54313   0.92698   0.52499
H          H       0.07302   0.61615   0.52499
H          H       0.38385   0.45687   0.52499
H          H       0.72742   0.27233   0.86185
H          H       0.72767   0.45509   0.86185
H          H       0.54491   0.27258   0.86185
H          H       0.24247   0.48042   0.86740
H          H       0.51958   0.76205   0.86740
H          H       0.23795   0.75753   0.86740
