data_crystal

_cell_length_a    37.58000
_cell_length_b    37.58000
_cell_length_c    7.15000
_cell_angle_alpha 90.00000
_cell_angle_beta  90.00000
_cell_angle_gamma 90.00000

_space_group_name_Hall 'P 1'
_space_group_name_H-M_alt  'P 1'

loop_
_symmetry_equiv_pos_as_xyz
'x,y,z'

loop_
_atom_site_label
_atom_site_type_symbol
_atom_site_fract_x
_atom_site_fract_y
_atom_site_fract_z
C          C       0.14954   0.95814   0.97081
C          C       0.35046   0.54186   0.47081
C          C       0.04186   0.64954   0.22081
C          C       0.45814   0.85046   0.72081
C          C       0.64954   0.45814   0.47081
C          C       0.85046   0.04186   0.97081
C          C       0.54186   0.14954   0.72081
C          C       0.95814   0.35046   0.22081
C          C       0.17750   0.96120   0.10279
C          C       0.32250   0.53880   0.60279
C          C       0.03880   0.67750   0.35279
C          C       0.46120   0.82250   0.85279
C          C       0.67750   0.46120   0.60279
C          C       0.82250   0.03880   0.10279
C          C       0.53880   0.17750   0.85279
C          C       0.96120   0.32250   0.35279
C          C       0.17604   0.94129   0.26946
C          C       0.32396   0.55871   0.76946
C          C       0.05871   0.67604   0.51946
C          C       0.44129   0.82396   0.01946
C          C       0.67604   0.44129   0.76946
C          C       0.82396   0.05871   0.26946
C          C       0.55871   0.17604   0.01946
C          C       0.94129   0.32396   0.51946
C          C       0.14772   0.91843   0.30437
C          C       0.35228   0.58157   0.80437
C          C       0.08157   0.64772   0.55437
C          C       0.41843   0.85228   0.05437
C          C       0.64772   0.41843   0.80437
C          C       0.85228   0.08157   0.30437
C          C       0.58157   0.14772   0.05437
C          C       0.91843   0.35228   0.55437
C          C       0.12040   0.91528   0.17354
C          C       0.37960   0.58472   0.67354
C          C       0.08472   0.62040   0.42354
C          C       0.41528   0.87960   0.92354
C          C       0.62040   0.41528   0.67354
C          C       0.87960   0.08472   0.17354
C          C       0.58472   0.12040   0.92354
C          C       0.91528   0.37960   0.42354
C          C       0.12122   0.93508   0.00832
C          C       0.37878   0.56492   0.50832
C          C       0.06492   0.62122   0.25832
C          C       0.43508   0.87878   0.75832
C          C       0.62122   0.43508   0.50832
C          C       0.87878   0.06492   0.00832
C          C       0.56492   0.12122   0.75832
C          C       0.93508   0.37878   0.25832
C          C       0.15016   0.97860   0.80573
C          C       0.34984   0.52140   0.30573
C          C       0.02140   0.65016   0.05573
C          C       0.47860   0.84984   0.55573
C          C       0.65016   0.47860   0.30573
C          C       0.84984   0.02140   0.80573
C          C       0.52140   0.15016   0.55573
C          C       0.97860   0.34984   0.05573
C          C       0.17861   0.00146   0.77191
C          C       0.32139   0.49854   0.27191
C          C       0.99854   0.67861   0.02191
C          C       0.50146   0.82139   0.52191
C          C       0.67861   0.50146   0.27191
C          C       0.82139   0.99854   0.77191
C          C       0.49854   0.17861   0.52191
C          C       0.00146   0.32139   0.02191
C          C       0.20631   0.00443   0.89990
C          C       0.29369   0.49557   0.39990
C          C       0.99557   0.70631   0.14990
C          C       0.50443   0.79369   0.64990
C          C       0.70631   0.50443   0.39990
C          C       0.79369   0.99557   0.89990
C          C       0.49557   0.20631   0.64990
C          C       0.00443   0.29369   0.14990
C          C       0.20600   0.98452   0.06665
C          C       0.29400   0.51548   0.56665
C          C       0.01548   0.70600   0.31665
C          C       0.48452   0.79400   0.81665
C          C       0.70600   0.48452   0.56665
C          C       0.79400   0.01548   0.06665
C          C       0.51548   0.20600   0.81665
C          C       0.98452   0.29400   0.31665
C          C       0.23475   0.98960   0.20586
C          C       0.26525   0.51040   0.70586
C          C       0.01040   0.73475   0.45586
C          C       0.48960   0.76525   0.95586
C          C       0.73475   0.48960   0.70586
C          C       0.76525   0.01040   0.20586
C          C       0.51040   0.23475   0.95586
C          C       0.98960   0.26525   0.45586
C          C       0.23644   0.02159   0.30658
C          C       0.26356   0.47841   0.80658
C          C       0.97841   0.73644   0.55658
C          C       0.52159   0.76356   0.05658
C          C       0.73644   0.52159   0.80658
C          C       0.76356   0.97841   0.30658
C          C       0.47841   0.23644   0.05658
C          C       0.02159   0.26356   0.55658
C          C       0.26201   0.02637   0.44488
C          C       0.23799   0.47363   0.94488
C          C       0.97363   0.76201   0.69488
C          C       0.52637   0.73799   0.19488
C          C       0.76201   0.52637   0.94488
C          C       0.73799   0.97363   0.44488
C          C       0.47363   0.26201   0.19488
C          C       0.02637   0.23799   0.69488
C          C       0.28640   0.99972   0.48660
C          C       0.21360   0.50028   0.98660
C          C       0.00028   0.78640   0.73660
C          C       0.49972   0.71360   0.23660
C          C       0.78640   0.49972   0.98660
C          C       0.71360   0.00028   0.48660
C          C       0.50028   0.28640   0.23660
C          C       0.99972   0.21360   0.73660
C          C       0.28582   0.96779   0.38354
C          C       0.21418   0.53221   0.88354
C          C       0.03221   0.78582   0.63354
C          C       0.46779   0.71418   0.13354
C          C       0.78582   0.46779   0.88354
C          C       0.71418   0.03221   0.38354
C          C       0.53221   0.28582   0.13354
C          C       0.96779   0.21418   0.63354
C          C       0.25996   0.96276   0.24160
C          C       0.24004   0.53724   0.74160
C          C       0.03724   0.75996   0.49160
C          C       0.46276   0.74004   0.99160
C          C       0.75996   0.46276   0.74160
C          C       0.74004   0.03724   0.24160
C          C       0.53724   0.25996   0.99160
C          C       0.96276   0.24004   0.49160
C          C       0.25998   0.93107   0.13795
C          C       0.24002   0.56893   0.63795
C          C       0.06893   0.75998   0.38795
C          C       0.43107   0.74002   0.88795
C          C       0.75998   0.43107   0.63795
C          C       0.74002   0.06893   0.13795
C          C       0.56893   0.25998   0.88795
C          C       0.93107   0.24002   0.38795
C          C       0.28497   0.90466   0.17424
C          C       0.21503   0.59534   0.67424
C          C       0.09534   0.78497   0.42424
C          C       0.40466   0.71503   0.92424
C          C       0.78497   0.40466   0.67424
C          C       0.71503   0.09534   0.17424
C          C       0.59534   0.28497   0.92424
C          C       0.90466   0.21503   0.42424
C          C       0.31033   0.90961   0.31437
C          C       0.18967   0.59039   0.81437
C          C       0.09039   0.81033   0.56437
C          C       0.40961   0.68967   0.06437
C          C       0.81033   0.40961   0.81437
C          C       0.68967   0.09039   0.31437
C          C       0.59039   0.31033   0.06437
C          C       0.90961   0.18967   0.56437
C          C       0.31080   0.94098   0.41772
C          C       0.18920   0.55902   0.91772
C          C       0.05902   0.81080   0.66772
C          C       0.44098   0.68920   0.16772
C          C       0.81080   0.44098   0.91772
C          C       0.68920   0.05902   0.41772
C          C       0.55902   0.31080   0.16772
C          C       0.94098   0.18920   0.66772
C          C       0.12065   0.97713   0.67175
C          C       0.37935   0.52287   0.17175
C          C       0.02287   0.62065   0.92175
C          C       0.47713   0.87935   0.42175
C          C       0.62065   0.47713   0.17175
C          C       0.87935   0.02287   0.67175
C          C       0.52287   0.12065   0.42175
C          C       0.97713   0.37935   0.92175
N          N       0.11908   0.99824   0.52878
N          N       0.38092   0.50176   0.02878
N          N       0.00176   0.61908   0.77878
N          N       0.49824   0.88092   0.27878
N          N       0.61908   0.49824   0.02878
N          N       0.88092   0.00176   0.52878
N          N       0.50176   0.11908   0.27878
N          N       0.99824   0.38092   0.77878
C          C       0.09025   0.99761   0.39901
C          C       0.40975   0.50239   0.89901
C          C       0.00239   0.59025   0.64901
C          C       0.49761   0.90975   0.14901
C          C       0.59025   0.49761   0.89901
C          C       0.90975   0.00239   0.39901
C          C       0.50239   0.09025   0.14901
C          C       0.99761   0.40975   0.64901
C          C       0.31092   0.00547   0.64394
C          C       0.18908   0.49453   0.14394
C          C       0.99453   0.81092   0.89394
C          C       0.50547   0.68908   0.39394
C          C       0.81092   0.50547   0.14394
C          C       0.68908   0.99453   0.64394
C          C       0.49453   0.31092   0.39394
C          C       0.00547   0.18908   0.89394
C          C       0.08842   0.02362   0.26023
C          C       0.41158   0.47638   0.76023
C          C       0.97638   0.58842   0.51023
C          C       0.52362   0.91158   0.01023
C          C       0.58842   0.52362   0.76023
C          C       0.91158   0.97638   0.26023
C          C       0.47638   0.08842   0.01023
C          C       0.02362   0.41158   0.51023
C          C       0.05983   0.02439   0.13624
C          C       0.44017   0.47561   0.63624
C          C       0.97561   0.55983   0.38624
C          C       0.52439   0.94017   0.88624
C          C       0.55983   0.52439   0.63624
C          C       0.94017   0.97561   0.13624
C          C       0.47561   0.05983   0.88624
C          C       0.02439   0.44017   0.38624
C          C       0.03267   0.99895   0.14739
C          C       0.46733   0.50105   0.64739
C          C       0.00105   0.53267   0.39739
C          C       0.49895   0.96733   0.89739
C          C       0.53267   0.49895   0.64739
C          C       0.96733   0.00105   0.14739
C          C       0.50105   0.03267   0.89739
C          C       0.99895   0.46733   0.39739
C          C       0.03497   0.97273   0.28715
C          C       0.46503   0.52727   0.78715
C          C       0.02727   0.53497   0.53715
C          C       0.47273   0.96503   0.03715
C          C       0.53497   0.47273   0.78715
C          C       0.96503   0.02727   0.28715
C          C       0.52727   0.03497   0.03715
C          C       0.97273   0.46503   0.53715
C          C       0.06337   0.97209   0.41189
C          C       0.43663   0.52791   0.91189
C          C       0.02791   0.56337   0.66189
C          C       0.47209   0.93663   0.16189
C          C       0.56337   0.47209   0.91189
C          C       0.93663   0.02791   0.41189
C          C       0.52791   0.06337   0.16189
C          C       0.97209   0.43663   0.66189
Cl         Cl      0.08484   0.88680   0.21692
Cl         Cl      0.41516   0.61320   0.71692
Cl         Cl      0.11320   0.58484   0.46692
Cl         Cl      0.38680   0.91516   0.96692
Cl         Cl      0.58484   0.38680   0.71692
Cl         Cl      0.91516   0.11320   0.21692
Cl         Cl      0.61320   0.08484   0.96692
Cl         Cl      0.88680   0.41516   0.46692
Cl         Cl      0.34141   0.87640   0.36238
Cl         Cl      0.15859   0.62360   0.86238
Cl         Cl      0.12360   0.84141   0.61238
Cl         Cl      0.37640   0.65859   0.11238
Cl         Cl      0.84141   0.37640   0.86238
Cl         Cl      0.65859   0.12360   0.36238
Cl         Cl      0.62360   0.34141   0.11238
Cl         Cl      0.87640   0.15859   0.61238
O          O       0.23347   0.02737   0.86227
O          O       0.26653   0.47263   0.36227
O          O       0.97263   0.73347   0.11227
O          O       0.52737   0.76653   0.61227
O          O       0.73347   0.52737   0.36227
O          O       0.76653   0.97263   0.86227
O          O       0.47263   0.23347   0.61227
O          O       0.02737   0.26653   0.11227
O          O       0.21234   0.04802   0.27488
O          O       0.28766   0.45198   0.77488
O          O       0.95198   0.71234   0.52488
O          O       0.54802   0.78766   0.02488
O          O       0.71234   0.54802   0.77488
O          O       0.78766   0.95198   0.27488
O          O       0.45198   0.21234   0.02488
O          O       0.04802   0.28766   0.52488
C          C       0.31148   0.98151   0.79396
C          C       0.18852   0.51849   0.29396
C          C       0.01849   0.81148   0.04396
C          C       0.48151   0.68852   0.54396
C          C       0.81148   0.48151   0.29396
C          C       0.68852   0.01849   0.79396
C          C       0.51849   0.31148   0.54396
C          C       0.98151   0.18852   0.04396
C          C       0.33455   0.98680   0.94387
C          C       0.16545   0.51320   0.44387
C          C       0.01320   0.83455   0.19387
C          C       0.48680   0.66545   0.69387
C          C       0.83455   0.48680   0.44387
C          C       0.66545   0.01320   0.94387
C          C       0.51320   0.33455   0.69387
C          C       0.98680   0.16545   0.19387
C          C       0.35727   0.01611   0.94516
C          C       0.14273   0.48389   0.44516
C          C       0.98389   0.85727   0.19516
C          C       0.51611   0.64273   0.69516
C          C       0.85727   0.51611   0.44516
C          C       0.64273   0.98389   0.94516
C          C       0.48389   0.35727   0.69516
C          C       0.01611   0.14273   0.19516
C          C       0.35644   0.04035   0.79685
C          C       0.14356   0.45965   0.29685
C          C       0.95965   0.85644   0.04685
C          C       0.54035   0.64356   0.54685
C          C       0.85644   0.54035   0.29685
C          C       0.64356   0.95965   0.79685
C          C       0.45965   0.35644   0.54685
C          C       0.04035   0.14356   0.04685
C          C       0.33314   0.03519   0.64694
C          C       0.16686   0.46481   0.14694
C          C       0.96481   0.83314   0.89694
C          C       0.53519   0.66686   0.39694
C          C       0.83314   0.53519   0.14694
C          C       0.66686   0.96481   0.64694
C          C       0.46481   0.33314   0.39694
C          C       0.03519   0.16686   0.89694
C          C       0.38330   0.02068   0.09471
C          C       0.11670   0.47932   0.59471
C          C       0.97932   0.88330   0.34471
C          C       0.52068   0.61670   0.84471
C          C       0.88330   0.52068   0.59471
C          C       0.61670   0.97932   0.09471
C          C       0.47932   0.38330   0.84471
C          C       0.02068   0.11670   0.34471
N          N       0.38538   0.99830   0.23216
N          N       0.11462   0.50170   0.73216
N          N       0.00170   0.88538   0.48216
N          N       0.49830   0.61462   0.98216
N          N       0.88538   0.49830   0.73216
N          N       0.61462   0.00170   0.23216
N          N       0.50170   0.38538   0.98216
N          N       0.99830   0.11462   0.48216
C          C       0.41187   0.00072   0.37466
C          C       0.08813   0.49928   0.87466
C          C       0.99928   0.91187   0.62466
C          C       0.50072   0.58813   0.12466
C          C       0.91187   0.50072   0.87466
C          C       0.58813   0.99928   0.37466
C          C       0.49928   0.41187   0.12466
C          C       0.00072   0.08813   0.62466
C          C       0.41389   0.97415   0.51060
C          C       0.08611   0.52585   0.01060
C          C       0.02585   0.91389   0.76060
C          C       0.47415   0.58611   0.26060
C          C       0.91389   0.47415   0.01060
C          C       0.58611   0.02585   0.51060
C          C       0.52585   0.41389   0.26060
C          C       0.97415   0.08611   0.76060
C          C       0.44145   0.97421   0.64128
C          C       0.05855   0.52579   0.14128
C          C       0.02579   0.94145   0.89128
C          C       0.47421   0.55855   0.39128
C          C       0.94145   0.47421   0.14128
C          C       0.55855   0.02579   0.64128
C          C       0.52579   0.44145   0.39128
C          C       0.97421   0.05855   0.89128
C          C       0.46744   0.00095   0.63900
C          C       0.03256   0.49905   0.13900
C          C       0.99905   0.96744   0.88900
C          C       0.50095   0.53256   0.38900
C          C       0.96744   0.50095   0.13900
C          C       0.53256   0.99905   0.63900
C          C       0.49905   0.46744   0.38900
C          C       0.00095   0.03256   0.88900
C          C       0.46479   0.02779   0.50260
C          C       0.03521   0.47221   0.00260
C          C       0.97221   0.96479   0.75260
C          C       0.52779   0.53521   0.25260
C          C       0.96479   0.52779   0.00260
C          C       0.53521   0.97221   0.50260
C          C       0.47221   0.46479   0.25260
C          C       0.02779   0.03521   0.75260
C          C       0.43736   0.02773   0.37206
C          C       0.06264   0.47227   0.87206
C          C       0.97227   0.93736   0.62206
C          C       0.52773   0.56264   0.12206
C          C       0.93736   0.52773   0.87206
C          C       0.56264   0.97227   0.37206
C          C       0.47227   0.43736   0.12206
C          C       0.02773   0.06264   0.62206
H          H       0.19822   0.94382   0.37741
H          H       0.30178   0.55618   0.87741
H          H       0.05618   0.69822   0.62741
H          H       0.44382   0.80178   0.12741
H          H       0.69822   0.44382   0.87741
H          H       0.80178   0.05618   0.37741
H          H       0.55618   0.19822   0.12741
H          H       0.94382   0.30178   0.62741
H          H       0.14691   0.90236   0.43954
H          H       0.35309   0.59764   0.93954
H          H       0.09764   0.64691   0.68954
H          H       0.40236   0.85309   0.18954
H          H       0.64691   0.40236   0.93954
H          H       0.85309   0.09764   0.43954
H          H       0.59764   0.14691   0.18954
H          H       0.90236   0.35309   0.68954
H          H       0.09867   0.93252   0.90254
H          H       0.40133   0.56748   0.40254
H          H       0.06748   0.59867   0.15254
H          H       0.43252   0.90133   0.65254
H          H       0.59867   0.43252   0.40254
H          H       0.90133   0.06748   0.90254
H          H       0.56748   0.09867   0.65254
H          H       0.93252   0.40133   0.15254
H          H       0.17934   0.01798   0.63823
H          H       0.32066   0.48202   0.13823
H          H       0.98202   0.67934   0.88823
H          H       0.51798   0.82066   0.38823
H          H       0.67934   0.51798   0.13823
H          H       0.82066   0.98202   0.63823
H          H       0.48202   0.17934   0.38823
H          H       0.01798   0.32066   0.88823
H          H       0.26319   0.05246   0.52601
H          H       0.23681   0.44754   0.02601
H          H       0.94754   0.76319   0.77601
H          H       0.55246   0.73681   0.27601
H          H       0.76319   0.55246   0.02601
H          H       0.73681   0.94754   0.52601
H          H       0.44754   0.26319   0.27601
H          H       0.05246   0.23681   0.77601
H          H       0.23930   0.92704   0.02322
H          H       0.26070   0.57296   0.52322
H          H       0.07296   0.73930   0.27322
H          H       0.42704   0.76070   0.77322
H          H       0.73930   0.42704   0.52322
H          H       0.76070   0.07296   0.02322
H          H       0.57296   0.23930   0.77322
H          H       0.92704   0.26070   0.27322
H          H       0.28475   0.87897   0.08947
H          H       0.21525   0.62103   0.58947
H          H       0.12103   0.78475   0.33947
H          H       0.37897   0.71525   0.83947
H          H       0.78475   0.37897   0.58947
H          H       0.71525   0.12103   0.08947
H          H       0.62103   0.28475   0.83947
H          H       0.87897   0.21525   0.33947
H          H       0.33168   0.94500   0.53144
H          H       0.16832   0.55500   0.03144
H          H       0.05500   0.83168   0.78144
H          H       0.44500   0.66832   0.28144
H          H       0.83168   0.44500   0.03144
H          H       0.66832   0.05500   0.53144
H          H       0.55500   0.33168   0.28144
H          H       0.94500   0.16832   0.78144
H          H       0.09872   0.95669   0.69608
H          H       0.40128   0.54331   0.19608
H          H       0.04331   0.59872   0.94608
H          H       0.45669   0.90128   0.44608
H          H       0.59872   0.45669   0.19608
H          H       0.90128   0.04331   0.69608
H          H       0.54331   0.09872   0.44608
H          H       0.95669   0.40128   0.94608
H          H       0.11049   0.04432   0.24857
H          H       0.38951   0.45568   0.74857
H          H       0.95568   0.61049   0.49857
H          H       0.54432   0.88951   0.99857
H          H       0.61049   0.54432   0.74857
H          H       0.88951   0.95568   0.24857
H          H       0.45568   0.11049   0.99857
H          H       0.04432   0.38951   0.49857
H          H       0.05836   0.04590   0.02406
H          H       0.44164   0.45410   0.52406
H          H       0.95410   0.55836   0.27406
H          H       0.54590   0.94164   0.77406
H          H       0.55836   0.54590   0.52406
H          H       0.94164   0.95410   0.02406
H          H       0.45410   0.05836   0.77406
H          H       0.04590   0.44164   0.27406
H          H       0.01336   0.95156   0.29949
H          H       0.48664   0.54844   0.79949
H          H       0.04844   0.51336   0.54949
H          H       0.45156   0.98664   0.04949
H          H       0.51336   0.45156   0.79949
H          H       0.98664   0.04844   0.29949
H          H       0.54844   0.01336   0.04949
H          H       0.95156   0.48664   0.54949
H          H       0.06470   0.95070   0.52478
H          H       0.43530   0.54930   0.02478
H          H       0.04930   0.56470   0.77478
H          H       0.45070   0.93530   0.27478
H          H       0.56470   0.45070   0.02478
H          H       0.93530   0.04930   0.52478
H          H       0.54930   0.06470   0.27478
H          H       0.95070   0.43530   0.77478
H          H       0.23025   0.05182   0.94778
H          H       0.26975   0.44818   0.44778
H          H       0.94818   0.73025   0.19778
H          H       0.55182   0.76975   0.69778
H          H       0.73025   0.55182   0.44778
H          H       0.76975   0.94818   0.94778
H          H       0.44818   0.23025   0.69778
H          H       0.05182   0.26975   0.19778
H          H       0.22010   0.07209   0.35508
H          H       0.27990   0.42791   0.85508
H          H       0.92791   0.72010   0.60508
H          H       0.57209   0.77990   0.10508
H          H       0.72010   0.57209   0.85508
H          H       0.77990   0.92791   0.35508
H          H       0.42791   0.22010   0.10508
H          H       0.07209   0.27990   0.60508
H          H       0.29288   0.95754   0.79282
H          H       0.20712   0.54246   0.29282
H          H       0.04246   0.79288   0.04282
H          H       0.45754   0.70712   0.54282
H          H       0.79288   0.45754   0.29282
H          H       0.70712   0.04246   0.79282
H          H       0.54246   0.29288   0.54282
H          H       0.95754   0.20712   0.04282
H          H       0.33485   0.96717   0.06540
H          H       0.16515   0.53283   0.56540
H          H       0.03283   0.83485   0.31540
H          H       0.46717   0.66515   0.81540
H          H       0.83485   0.46717   0.56540
H          H       0.66515   0.03283   0.06540
H          H       0.53283   0.33485   0.81540
H          H       0.96717   0.16515   0.31540
H          H       0.37484   0.06447   0.79780
H          H       0.12516   0.43553   0.29780
H          H       0.93553   0.87484   0.04780
H          H       0.56447   0.62516   0.54780
H          H       0.87484   0.56447   0.29780
H          H       0.62516   0.93553   0.79780
H          H       0.43553   0.37484   0.54780
H          H       0.06447   0.12516   0.04780
H          H       0.33231   0.05526   0.52746
H          H       0.16769   0.44474   0.02746
H          H       0.94474   0.83231   0.77746
H          H       0.55526   0.66769   0.27746
H          H       0.83231   0.55526   0.02746
H          H       0.66769   0.94474   0.52746
H          H       0.44474   0.33231   0.27746
H          H       0.05526   0.16769   0.77746
H          H       0.40203   0.04452   0.08896
H          H       0.09797   0.45548   0.58896
H          H       0.95548   0.90203   0.33896
H          H       0.54452   0.59797   0.83896
H          H       0.90203   0.54452   0.58896
H          H       0.59797   0.95548   0.08896
H          H       0.45548   0.40203   0.83896
H          H       0.04452   0.09797   0.33896
H          H       0.39285   0.95231   0.51442
H          H       0.10715   0.54769   0.01442
H          H       0.04769   0.89285   0.76442
H          H       0.45231   0.60715   0.26442
H          H       0.89285   0.45231   0.01442
H          H       0.60715   0.04769   0.51442
H          H       0.54769   0.39285   0.26442
H          H       0.95231   0.10715   0.76442
H          H       0.44300   0.95234   0.75150
H          H       0.05700   0.54766   0.25150
H          H       0.04766   0.94300   0.00150
H          H       0.45234   0.55700   0.50150
H          H       0.94300   0.45234   0.25150
H          H       0.55700   0.04766   0.75150
H          H       0.54766   0.44300   0.50150
H          H       0.95234   0.05700   0.00150
H          H       0.48535   0.05008   0.49779
H          H       0.01465   0.44992   0.99779
H          H       0.94992   0.98535   0.74779
H          H       0.55008   0.51465   0.24779
H          H       0.98535   0.55008   0.99779
H          H       0.51465   0.94992   0.49779
H          H       0.44992   0.48535   0.24779
H          H       0.05008   0.01465   0.74779
H          H       0.43568   0.04975   0.26277
H          H       0.06432   0.45025   0.76277
H          H       0.95025   0.93568   0.51277
H          H       0.54975   0.56432   0.01277
H          H       0.93568   0.54975   0.76277
H          H       0.56432   0.95025   0.26277
H          H       0.45025   0.43568   0.01277
H          H       0.04975   0.06432   0.51277
C          C       0.00000   0.00000   0.01862
C          C       0.50000   0.50000   0.51862
C          C       0.00000   0.50000   0.26862
C          C       0.50000   0.00000   0.76862
