data_crystal

_cell_length_a    30.97000
_cell_length_b    30.97000
_cell_length_c    7.57000
_cell_angle_alpha 90.00000
_cell_angle_beta  90.00000
_cell_angle_gamma 90.00000

_space_group_name_Hall 'P 1'
_space_group_name_H-M_alt  'P 1'

loop_
_symmetry_equiv_pos_as_xyz
'x,y,z'

loop_
_atom_site_label
_atom_site_type_symbol
_atom_site_fract_x
_atom_site_fract_y
_atom_site_fract_z
C          C       0.68917   0.97379   0.45398
C          C       0.81083   0.52621   0.95398
C          C       0.02621   0.18917   0.70398
C          C       0.47379   0.31083   0.20398
C          C       0.18917   0.47379   0.95398
C          C       0.31083   0.02621   0.45398
C          C       0.52621   0.68917   0.20398
C          C       0.97379   0.81083   0.70398
C          C       0.72061   0.97692   0.59050
C          C       0.77939   0.52308   0.09050
C          C       0.02308   0.22061   0.84050
C          C       0.47692   0.27939   0.34050
C          C       0.22061   0.47692   0.09050
C          C       0.27939   0.02308   0.59050
C          C       0.52308   0.72061   0.34050
C          C       0.97692   0.77939   0.84050
C          C       0.75447   0.94676   0.59628
C          C       0.74553   0.55324   0.09628
C          C       0.05324   0.25447   0.84628
C          C       0.44676   0.24553   0.34628
C          C       0.25447   0.44676   0.09628
C          C       0.24553   0.05324   0.59628
C          C       0.55324   0.75447   0.34628
C          C       0.94676   0.74553   0.84628
C          C       0.75606   0.91247   0.47714
C          C       0.74394   0.58753   0.97714
C          C       0.08753   0.25606   0.72714
C          C       0.41247   0.24394   0.22714
C          C       0.25606   0.41247   0.97714
C          C       0.24394   0.08753   0.47714
C          C       0.58753   0.75606   0.22714
C          C       0.91247   0.74394   0.72714
C          C       0.72392   0.90797   0.34962
C          C       0.77608   0.59203   0.84962
C          C       0.09203   0.22392   0.59962
C          C       0.40797   0.27608   0.09962
C          C       0.22392   0.40797   0.84962
C          C       0.27608   0.09203   0.34962
C          C       0.59203   0.72392   0.09962
C          C       0.90797   0.77608   0.59962
C          C       0.69112   0.93876   0.33644
C          C       0.80888   0.56124   0.83644
C          C       0.06124   0.19112   0.58644
C          C       0.43876   0.30888   0.08644
C          C       0.19112   0.43876   0.83644
C          C       0.30888   0.06124   0.33644
C          C       0.56124   0.69112   0.08644
C          C       0.93876   0.80888   0.58644
C          C       0.65632   0.00547   0.44147
C          C       0.84368   0.49453   0.94147
C          C       0.99453   0.15632   0.69147
C          C       0.50547   0.34368   0.19147
C          C       0.15632   0.50547   0.94147
C          C       0.34368   0.99453   0.44147
C          C       0.49453   0.65632   0.19147
C          C       0.00547   0.84368   0.69147
C          C       0.65207   0.03583   0.57644
C          C       0.84793   0.46417   0.07644
C          C       0.96417   0.15207   0.82644
C          C       0.53583   0.34793   0.32644
C          C       0.15207   0.53583   0.07644
C          C       0.34793   0.96417   0.57644
C          C       0.46417   0.65207   0.32644
C          C       0.03583   0.84793   0.82644
C          C       0.68118   0.03732   0.71662
C          C       0.81882   0.46268   0.21662
C          C       0.96268   0.18118   0.96662
C          C       0.53732   0.31882   0.46662
C          C       0.18118   0.53732   0.21662
C          C       0.31882   0.96268   0.71662
C          C       0.46268   0.68118   0.46662
C          C       0.03732   0.81882   0.96662
C          C       0.71725   0.00978   0.71954
C          C       0.78275   0.49022   0.21954
C          C       0.99022   0.21725   0.96954
C          C       0.50978   0.28275   0.46954
C          C       0.21725   0.50978   0.21954
C          C       0.28275   0.99022   0.71954
C          C       0.49022   0.71725   0.46954
C          C       0.00978   0.78275   0.96954
C          C       0.75122   0.01642   0.85686
C          C       0.74878   0.48358   0.35686
C          C       0.98358   0.25122   0.10686
C          C       0.51642   0.24878   0.60686
C          C       0.25122   0.51642   0.35686
C          C       0.24878   0.98358   0.85686
C          C       0.48358   0.75122   0.60686
C          C       0.01642   0.74878   0.10686
C          C       0.75893   0.98444   0.98444
C          C       0.74107   0.51556   0.48444
C          C       0.01556   0.25893   0.23444
C          C       0.48444   0.24107   0.73444
C          C       0.25893   0.48444   0.48444
C          C       0.24107   0.01556   0.98444
C          C       0.51556   0.75893   0.73444
C          C       0.98444   0.74107   0.23444
C          C       0.78998   0.99075   0.11550
C          C       0.71002   0.50925   0.61550
C          C       0.00925   0.28998   0.36550
C          C       0.49075   0.21002   0.86550
C          C       0.28998   0.49075   0.61550
C          C       0.21002   0.00925   0.11550
C          C       0.50925   0.78998   0.86550
C          C       0.99075   0.71002   0.36550
C          C       0.81372   0.02918   0.12555
C          C       0.68628   0.47082   0.62555
C          C       0.97082   0.31372   0.37555
C          C       0.52918   0.18628   0.87555
C          C       0.31372   0.52918   0.62555
C          C       0.18628   0.97082   0.12555
C          C       0.47082   0.81372   0.87555
C          C       0.02918   0.68628   0.37555
C          C       0.80622   0.06188   0.99952
C          C       0.69378   0.43812   0.49952
C          C       0.93812   0.30622   0.24952
C          C       0.56188   0.19378   0.74952
C          C       0.30622   0.56188   0.49952
C          C       0.19378   0.93812   0.99952
C          C       0.43812   0.80622   0.74952
C          C       0.06188   0.69378   0.24952
C          C       0.77542   0.05510   0.86296
C          C       0.72458   0.44490   0.36296
C          C       0.94490   0.27542   0.11296
C          C       0.55510   0.22458   0.61296
C          C       0.27542   0.55510   0.36296
C          C       0.22458   0.94490   0.86296
C          C       0.44490   0.77542   0.61296
C          C       0.05510   0.72458   0.11296
C          C       0.76968   0.08704   0.73347
C          C       0.73032   0.41296   0.23347
C          C       0.91296   0.26968   0.98347
C          C       0.58704   0.23032   0.48347
C          C       0.26968   0.58704   0.23347
C          C       0.23032   0.91296   0.73347
C          C       0.41296   0.76968   0.48347
C          C       0.08704   0.73032   0.98347
C          C       0.79280   0.12554   0.74019
C          C       0.70720   0.37446   0.24019
C          C       0.87446   0.29280   0.99019
C          C       0.62554   0.20720   0.49019
C          C       0.29280   0.62554   0.24019
C          C       0.20720   0.87446   0.74019
C          C       0.37446   0.79280   0.49019
C          C       0.12554   0.70720   0.99019
C          C       0.82222   0.13269   0.87612
C          C       0.67778   0.36731   0.37612
C          C       0.86731   0.32222   0.12612
C          C       0.63269   0.17778   0.62612
C          C       0.32222   0.63269   0.37612
C          C       0.17778   0.86731   0.87612
C          C       0.36731   0.82222   0.62612
C          C       0.13269   0.67778   0.12612
C          C       0.82925   0.10099   0.00454
C          C       0.67075   0.39901   0.50454
C          C       0.89901   0.32925   0.25454
C          C       0.60099   0.17075   0.75454
C          C       0.32925   0.60099   0.50454
C          C       0.17075   0.89901   0.00454
C          C       0.39901   0.82925   0.75454
C          C       0.10099   0.67075   0.25454
C          C       0.62626   0.01025   0.29115
C          C       0.87374   0.48975   0.79115
C          C       0.98975   0.12626   0.54115
C          C       0.51025   0.37374   0.04115
C          C       0.12626   0.51025   0.79115
C          C       0.37374   0.98975   0.29115
C          C       0.48975   0.62626   0.04115
C          C       0.01025   0.87374   0.54115
N          N       0.62800   0.98665   0.14986
N          N       0.87200   0.51335   0.64986
N          N       0.01335   0.12800   0.39986
N          N       0.48665   0.37200   0.89986
N          N       0.12800   0.48665   0.64986
N          N       0.37200   0.01335   0.14986
N          N       0.51335   0.62800   0.89986
N          N       0.98665   0.87200   0.39986
C          C       0.59887   0.99231   0.00458
C          C       0.90113   0.50769   0.50458
C          C       0.00769   0.09887   0.25458
C          C       0.49231   0.40113   0.75458
C          C       0.09887   0.49231   0.50458
C          C       0.40113   0.00769   0.00458
C          C       0.50769   0.59887   0.75458
C          C       0.99231   0.90113   0.25458
C          C       0.84708   0.03389   0.26391
C          C       0.65292   0.46611   0.76391
C          C       0.96611   0.34708   0.51391
C          C       0.53389   0.15292   0.01391
C          C       0.34708   0.53389   0.76391
C          C       0.15292   0.96611   0.26391
C          C       0.46611   0.84708   0.01391
C          C       0.03389   0.65292   0.51391
N          N       0.86184   0.00023   0.34594
N          N       0.63816   0.49977   0.84594
N          N       0.99977   0.36184   0.59594
N          N       0.50023   0.13816   0.09594
N          N       0.36184   0.50023   0.84594
N          N       0.13816   0.99977   0.34594
N          N       0.49977   0.86184   0.09594
N          N       0.00023   0.63816   0.59594
C          C       0.89440   0.00143   0.48008
C          C       0.60560   0.49857   0.98008
C          C       0.99857   0.39440   0.73008
C          C       0.50143   0.10560   0.23008
C          C       0.39440   0.50143   0.98008
C          C       0.10560   0.99857   0.48008
C          C       0.49857   0.89440   0.23008
C          C       0.00143   0.60560   0.73008
C          C       0.57355   0.02968   0.98709
C          C       0.92645   0.47032   0.48709
C          C       0.97032   0.07355   0.23709
C          C       0.52968   0.42645   0.73709
C          C       0.07355   0.52968   0.48709
C          C       0.42645   0.97032   0.98709
C          C       0.47032   0.57355   0.73709
C          C       0.02968   0.92645   0.23709
C          C       0.54330   0.03305   0.85076
C          C       0.95670   0.46695   0.35076
C          C       0.96695   0.04330   0.10076
C          C       0.53305   0.45670   0.60076
C          C       0.04330   0.53305   0.35076
C          C       0.45670   0.96695   0.85076
C          C       0.46695   0.54330   0.60076
C          C       0.03305   0.95670   0.10076
C          C       0.53754   0.99921   0.72862
C          C       0.96246   0.50079   0.22862
C          C       0.00079   0.03754   0.97862
C          C       0.49921   0.46246   0.47862
C          C       0.03754   0.49921   0.22862
C          C       0.46246   0.00079   0.72862
C          C       0.50079   0.53754   0.47862
C          C       0.99921   0.96246   0.97862
C          C       0.56385   0.96235   0.74600
C          C       0.93615   0.53765   0.24600
C          C       0.03765   0.06385   0.99600
C          C       0.46235   0.43615   0.49600
C          C       0.06385   0.46235   0.24600
C          C       0.43615   0.03765   0.74600
C          C       0.53765   0.56385   0.49600
C          C       0.96235   0.93615   0.99600
C          C       0.59445   0.95915   0.88098
C          C       0.90555   0.54085   0.38098
C          C       0.04085   0.09445   0.13098
C          C       0.45915   0.40555   0.63098
C          C       0.09445   0.45915   0.38098
C          C       0.40555   0.04085   0.88098
C          C       0.54085   0.59445   0.63098
C          C       0.95915   0.90555   0.13098
C          C       0.90306   0.03867   0.58008
C          C       0.59694   0.46133   0.08008
C          C       0.96133   0.40306   0.83008
C          C       0.53867   0.09694   0.33008
C          C       0.40306   0.53867   0.08008
C          C       0.09694   0.96133   0.58008
C          C       0.46133   0.90306   0.33008
C          C       0.03867   0.59694   0.83008
C          C       0.93593   0.03825   0.70778
C          C       0.56407   0.46175   0.20778
C          C       0.96175   0.43593   0.95778
C          C       0.53825   0.06407   0.45778
C          C       0.43593   0.53825   0.20778
C          C       0.06407   0.96175   0.70778
C          C       0.46175   0.93593   0.45778
C          C       0.03825   0.56407   0.95778
C          C       0.96060   0.00070   0.73765
C          C       0.53940   0.49930   0.23765
C          C       0.99930   0.46060   0.98765
C          C       0.50070   0.03940   0.48765
C          C       0.46060   0.50070   0.23765
C          C       0.03940   0.99930   0.73765
C          C       0.49930   0.96060   0.48765
C          C       0.00070   0.53940   0.98765
C          C       0.95164   0.96401   0.63440
C          C       0.54836   0.53599   0.13440
C          C       0.03599   0.45164   0.88440
C          C       0.46401   0.04836   0.38440
C          C       0.45164   0.46401   0.13440
C          C       0.04836   0.03599   0.63440
C          C       0.53599   0.95164   0.38440
C          C       0.96401   0.54836   0.88440
C          C       0.91865   0.96420   0.50936
C          C       0.58135   0.53580   0.00936
C          C       0.03580   0.41865   0.75936
C          C       0.46420   0.08135   0.25936
C          C       0.41865   0.46420   0.00936
C          C       0.08135   0.03580   0.50936
C          C       0.53580   0.91865   0.25936
C          C       0.96420   0.58135   0.75936
Cl         Cl      0.72464   0.86347   0.20693
Cl         Cl      0.77536   0.63653   0.70693
Cl         Cl      0.13653   0.22464   0.45693
Cl         Cl      0.36347   0.27536   0.95693
Cl         Cl      0.22464   0.36347   0.70693
Cl         Cl      0.27536   0.13653   0.20693
Cl         Cl      0.63653   0.72464   0.95693
Cl         Cl      0.86347   0.77536   0.45693
Cl         Cl      0.84961   0.18190   0.88519
Cl         Cl      0.65039   0.31810   0.38519
Cl         Cl      0.81810   0.34961   0.13519
Cl         Cl      0.68190   0.15039   0.63519
Cl         Cl      0.34961   0.68190   0.38519
Cl         Cl      0.15039   0.81810   0.88519
Cl         Cl      0.31810   0.84961   0.63519
Cl         Cl      0.18190   0.65039   0.13519
O          O       0.67436   0.06628   0.85039
O          O       0.82564   0.43372   0.35039
O          O       0.93372   0.17436   0.10039
O          O       0.56628   0.32564   0.60039
O          O       0.17436   0.56628   0.35039
O          O       0.32564   0.93372   0.85039
O          O       0.43372   0.67436   0.60039
O          O       0.06628   0.82564   0.10039
O          O       0.73604   0.94673   0.98190
O          O       0.76396   0.55327   0.48190
O          O       0.05327   0.23604   0.23190
O          O       0.44673   0.26396   0.73190
O          O       0.23604   0.44673   0.48190
O          O       0.26396   0.05327   0.98190
O          O       0.55327   0.73604   0.73190
O          O       0.94673   0.76396   0.23190
H          H       0.78111   0.95017   0.69932
H          H       0.71889   0.54983   0.19932
H          H       0.04983   0.28111   0.94932
H          H       0.45017   0.21889   0.44932
H          H       0.28111   0.45017   0.19932
H          H       0.21889   0.04983   0.69932
H          H       0.54983   0.78111   0.44932
H          H       0.95017   0.71889   0.94932
H          H       0.78363   0.88814   0.48410
H          H       0.71637   0.61186   0.98410
H          H       0.11186   0.28363   0.73410
H          H       0.38814   0.21637   0.23410
H          H       0.28363   0.38814   0.98410
H          H       0.21637   0.11186   0.48410
H          H       0.61186   0.78363   0.23410
H          H       0.88814   0.71637   0.73410
H          H       0.66546   0.93564   0.22918
H          H       0.83454   0.56436   0.72918
H          H       0.06436   0.16546   0.47918
H          H       0.43564   0.33454   0.97918
H          H       0.16546   0.43564   0.72918
H          H       0.33454   0.06436   0.22918
H          H       0.56436   0.66546   0.97918
H          H       0.93564   0.83454   0.47918
H          H       0.62437   0.06006   0.57340
H          H       0.87563   0.43994   0.07340
H          H       0.93994   0.12437   0.82340
H          H       0.56006   0.37563   0.32340
H          H       0.12437   0.56006   0.07340
H          H       0.37563   0.93994   0.57340
H          H       0.43994   0.62437   0.32340
H          H       0.06006   0.87563   0.82340
H          H       0.79644   0.96435   0.21712
H          H       0.70356   0.53565   0.71712
H          H       0.03565   0.29644   0.46712
H          H       0.46435   0.20356   0.96712
H          H       0.29644   0.46435   0.71712
H          H       0.20356   0.03565   0.21712
H          H       0.53565   0.79644   0.96712
H          H       0.96435   0.70356   0.46712
H          H       0.74570   0.08112   0.62176
H          H       0.75430   0.41888   0.12176
H          H       0.91888   0.24570   0.87176
H          H       0.58112   0.25430   0.37176
H          H       0.24570   0.58112   0.12176
H          H       0.25430   0.91888   0.62176
H          H       0.41888   0.74570   0.37176
H          H       0.08112   0.75430   0.87176
H          H       0.78763   0.15123   0.63435
H          H       0.71237   0.34877   0.13435
H          H       0.84877   0.28763   0.88435
H          H       0.65123   0.21237   0.38435
H          H       0.28763   0.65123   0.13435
H          H       0.21237   0.84877   0.63435
H          H       0.34877   0.78763   0.38435
H          H       0.15123   0.71237   0.88435
H          H       0.85379   0.10676   0.11431
H          H       0.64621   0.39324   0.61431
H          H       0.89324   0.35379   0.36431
H          H       0.60676   0.14621   0.86431
H          H       0.35379   0.60676   0.61431
H          H       0.14621   0.89324   0.11431
H          H       0.39324   0.85379   0.86431
H          H       0.10676   0.64621   0.36431
H          H       0.60052   0.03638   0.30407
H          H       0.89948   0.46362   0.80407
H          H       0.96362   0.10052   0.55407
H          H       0.53638   0.39948   0.05407
H          H       0.10052   0.53638   0.80407
H          H       0.39948   0.96362   0.30407
H          H       0.46362   0.60052   0.05407
H          H       0.03638   0.89948   0.55407
H          H       0.85984   0.06738   0.29833
H          H       0.64016   0.43262   0.79833
H          H       0.93262   0.35984   0.54833
H          H       0.56738   0.14016   0.04833
H          H       0.35984   0.56738   0.79833
H          H       0.14016   0.93262   0.29833
H          H       0.43262   0.85984   0.04833
H          H       0.06738   0.64016   0.54833
H          H       0.57778   0.05736   0.08489
H          H       0.92222   0.44264   0.58489
H          H       0.94264   0.07778   0.33489
H          H       0.55736   0.42222   0.83489
H          H       0.07778   0.55736   0.58489
H          H       0.42222   0.94264   0.08489
H          H       0.44264   0.57778   0.83489
H          H       0.05736   0.92222   0.33489
H          H       0.52287   0.06349   0.83727
H          H       0.97713   0.43651   0.33727
H          H       0.93651   0.02287   0.08727
H          H       0.56349   0.47713   0.58727
H          H       0.02287   0.56349   0.33727
H          H       0.47713   0.93651   0.83727
H          H       0.43651   0.52287   0.58727
H          H       0.06349   0.97713   0.08727
H          H       0.56038   0.93442   0.64886
H          H       0.93962   0.56558   0.14886
H          H       0.06558   0.06038   0.89886
H          H       0.43442   0.43962   0.39886
H          H       0.06038   0.43442   0.14886
H          H       0.43962   0.06558   0.64886
H          H       0.56558   0.56038   0.39886
H          H       0.93442   0.93962   0.89886
H          H       0.61596   0.92936   0.89052
H          H       0.88404   0.57064   0.39052
H          H       0.07064   0.11596   0.14052
H          H       0.42936   0.38404   0.64052
H          H       0.11596   0.42936   0.39052
H          H       0.38404   0.07064   0.89052
H          H       0.57064   0.61596   0.64052
H          H       0.92936   0.88404   0.14052
H          H       0.88334   0.06926   0.55737
H          H       0.61666   0.43074   0.05737
H          H       0.93074   0.38334   0.80737
H          H       0.56926   0.11666   0.30737
H          H       0.38334   0.56926   0.05737
H          H       0.11666   0.93074   0.55737
H          H       0.43074   0.88334   0.30737
H          H       0.06926   0.61666   0.80737
H          H       0.94293   0.06851   0.78870
H          H       0.55707   0.43149   0.28870
H          H       0.93149   0.44293   0.03870
H          H       0.56851   0.05707   0.53870
H          H       0.44293   0.56851   0.28870
H          H       0.05707   0.93149   0.78870
H          H       0.43149   0.94293   0.53870
H          H       0.06851   0.55707   0.03870
H          H       0.97154   0.93336   0.65228
H          H       0.52846   0.56664   0.15228
H          H       0.06664   0.47154   0.90228
H          H       0.43336   0.02846   0.40228
H          H       0.47154   0.43336   0.15228
H          H       0.02846   0.06664   0.65228
H          H       0.56664   0.97154   0.40228
H          H       0.93336   0.52846   0.90228
H          H       0.91132   0.93376   0.43011
H          H       0.58868   0.56624   0.93011
H          H       0.06624   0.41132   0.68011
H          H       0.43376   0.08868   0.18011
H          H       0.41132   0.43376   0.93011
H          H       0.08868   0.06624   0.43011
H          H       0.56624   0.91132   0.18011
H          H       0.93376   0.58868   0.68011
H          H       0.70591   0.07780   0.90165
H          H       0.79409   0.42220   0.40165
H          H       0.92220   0.20591   0.15165
H          H       0.57780   0.29409   0.65165
H          H       0.20591   0.57780   0.40165
H          H       0.29409   0.92220   0.90165
H          H       0.42220   0.70591   0.65165
H          H       0.07780   0.79409   0.15165
H          H       0.70402   0.95194   0.04432
H          H       0.79598   0.54806   0.54432
H          H       0.04806   0.20402   0.29432
H          H       0.45194   0.29598   0.79432
H          H       0.20402   0.45194   0.54432
H          H       0.29598   0.04806   0.04432
H          H       0.54806   0.70402   0.79432
H          H       0.95194   0.79598   0.29432
C          C       0.00000   0.00000   0.85082
C          C       0.50000   0.50000   0.35082
C          C       0.00000   0.50000   0.10082
C          C       0.50000   0.00000   0.60082
