data_crystal

_cell_length_a    51.10000
_cell_length_b    40.80000
_cell_length_c    17.20000
_cell_angle_alpha 137.60000
_cell_angle_beta  91.10000
_cell_angle_gamma 89.00000

_space_group_name_Hall 'P 1'
_space_group_name_H-M_alt  'P 1'

loop_
_symmetry_equiv_pos_as_xyz
 'x,y,z'

loop_
_atom_site_label
_atom_site_type_symbol
_atom_site_fract_x
_atom_site_fract_y
_atom_site_fract_z
C          C       0.59895   0.41527   0.41554
C          C       0.59984   0.46390   0.47392
C          C       0.58195   0.47944   0.44216
C          C       0.56313   0.44686   0.35503
C          C       0.56336   0.39829   0.29486
C          C       0.58095   0.38276   0.32542
C          C       0.61607   0.39966   0.44795
C          C       0.63440   0.43165   0.03748
C          C       0.63565   0.47939   0.09294
C          C       0.61849   0.49557   0.06267
C          C       0.58151   0.53039   0.00286
C          C       0.59948   0.54683   0.47573
C          C       0.59704   0.59465   0.02971
C          C       0.57702   0.62512   0.10909
C          C       0.55972   0.60906   0.13700
C          C       0.56224   0.56218   0.08697
C          C       0.61428   0.61109   0.00168
C          C       0.63417   0.58063   0.42050
C          C       0.63695   0.53379   0.37000
C          C       0.61972   0.51683   0.39591
C          C       0.39066   0.57946   0.39739
C          C       0.39601   0.55688   0.43065
C          C       0.41532   0.51963   0.37044
C          C       0.42902   0.50621   0.27941
C          C       0.42359   0.52941   0.24939
C          C       0.40435   0.56518   0.30641
C          C       0.37215   0.61705   0.45743
C          C       0.35875   0.63303   0.05114
C          C       0.36381   0.61055   0.08369
C          C       0.38236   0.57317   0.02487
C          C       0.42285   0.49628   0.40494
C          C       0.40664   0.46139   0.37994
C          C       0.41617   0.43616   0.40249
C          C       0.44165   0.44461   0.44544
C          C       0.45728   0.47924   0.47113
C          C       0.44783   0.50616   0.45478
C          C       0.40028   0.40223   0.38037
C          C       0.37484   0.39255   0.33530
C          C       0.36575   0.41652   0.30978
C          C       0.38144   0.45020   0.33097
O          O       0.45016   0.47370   0.22646
O          O       0.49779   0.58994   0.17305
C          C       0.50687   0.58158   0.23536
C          C       0.53666   0.57741   0.22958
O          O       0.54502   0.54461   0.11267
O          O       0.46418   0.54060   0.48110
O          O       0.48141   0.40778   0.19091
C          C       0.50685   0.42379   0.20144
C          C       0.51807   0.45164   0.31968
O          O       0.54494   0.46331   0.32719
C          C       0.65254   0.41464   0.07062
C          C       0.65127   0.59686   0.38487
C          C       0.33979   0.67373   0.11519
C          C       0.35759   0.35840   0.31753
C          C       0.31461   0.67009   0.13958
C          C       0.29605   0.70687   0.19038
C          C       0.30254   0.74815   0.21919
C          C       0.32805   0.75255   0.19895
C          C       0.34644   0.71567   0.14718
C          C       0.34082   0.32669   0.22080
C          C       0.32362   0.29656   0.20765
C          C       0.32291   0.29740   0.29068
C          C       0.34004   0.32807   0.38578
C          C       0.35720   0.35830   0.39918
C          C       0.64352   0.38385   0.07551
C          C       0.66078   0.36563   0.10051
C          C       0.68739   0.37782   0.12107
C          C       0.69634   0.40970   0.11977
C          C       0.67905   0.42822   0.09559
C          C       0.67791   0.58375   0.36113
C          C       0.69355   0.59710   0.32232
C          C       0.68299   0.62407   0.30693
C          C       0.65650   0.63770   0.33185
C          C       0.64075   0.62382   0.36921
C          C       0.28188   0.78487   0.25926
C          C       0.26869   0.81163   0.37404
C          C       0.28800   0.83739   0.46848
C          C       0.24855   0.84696   0.40245
C          C       0.30326   0.26718   0.28056
C          C       0.31584   0.22151   0.23780
C          C       0.32293   0.18602   0.11547
C          C       0.29767   0.19785   0.25365
C          C       0.70043   0.64063   0.27098
C          C       0.69145   0.62415   0.15997
C          C       0.68917   0.57093   0.06220
C          C       0.71058   0.64212   0.13144
C          C       0.70629   0.35579   0.14119
C          C       0.71710   0.39340   0.26561
C          C       0.69572   0.41604   0.34849
C          C       0.73658   0.36919   0.27836
C          C       0.25654   0.88706   0.42845
C          C       0.23842   0.91319   0.42902
C          C       0.21188   0.89990   0.40368
C          C       0.20352   0.86275   0.38827
C          C       0.22171   0.83652   0.38779
C          C       0.70338   0.67966   0.14554
C          C       0.72154   0.69861   0.12709
C          C       0.74727   0.68010   0.09296
C          C       0.75422   0.64168   0.07589
C          C       0.73617   0.62307   0.09537
C          C       0.72854   0.33341   0.26848
C          C       0.74701   0.30607   0.26284
C          C       0.77387   0.31379   0.26654
C          C       0.78185   0.35163   0.28368
C          C       0.76338   0.37908   0.28972
C          C       0.30622   0.18904   0.31517
C          C       0.28989   0.16586   0.32708
C          C       0.26443   0.15191   0.27979
C          C       0.25577   0.16137   0.21985
C          C       0.27227   0.18355   0.20570
N          N       0.30318   0.85762   0.04270
N          N       0.32852   0.15808   0.01926
N          N       0.67871   0.43377   0.41258
N          N       0.68747   0.52910   0.48521
C          C       0.19347   0.92037   0.37741
C          C       0.20190   0.90097   0.26325
C          C       0.19342   0.97389   0.47331
C          C       0.24639   0.12718   0.29284
C          C       0.24205   0.15895   0.42097
C          C       0.25714   0.07928   0.23114
C          C       0.79366   0.27824   0.23858
C          C       0.80601   0.24900   0.12087
C          C       0.81372   0.30403   0.33025
C          C       0.76760   0.70182   0.07808
C          C       0.77513   0.75349   0.19528
C          C       0.75797   0.70245   0.49792
N          N       0.19338   0.01593   0.04878
N          N       0.26551   0.04160   0.18266
N          N       0.82948   0.32426   0.40225
N          N       0.75061   0.70344   0.43566
C          C       0.10318   0.93401   0.45793
C          C       0.10268   0.98254   0.01547
C          C       0.08706   0.99454   0.46993
C          C       0.07134   0.95868   0.37128
C          C       0.07246   0.91067   0.31493
C          C       0.08812   0.89853   0.35797
C          C       0.11911   0.92126   0.49985
C          C       0.13474   0.95619   0.09849
C          C       0.13412   0.00429   0.15609
C          C       0.11814   0.01750   0.11588
O          O       0.05617   0.97102   0.32649
C          C       0.03021   0.95168   0.28826
C          C       0.02768   0.91667   0.15865
C          C       0.15179   0.94231   0.14097
C          C       0.17826   0.95572   0.16653
C          C       0.19437   0.94270   0.20699
C          C       0.18419   0.91653   0.22374
C          C       0.15780   0.90260   0.19679
C          C       0.14172   0.91546   0.15588
C          C       0.90155   0.02219   0.24673
C          C       0.90147   0.99642   0.27293
C          C       0.91831   0.95558   0.21157
C          C       0.93550   0.94216   0.12828
C          C       0.93464   0.96782   0.10238
C          C       0.91777   0.00706   0.16031
C          C       0.88598   0.06381   0.30963
C          C       0.87030   0.08081   0.39969
C          C       0.86993   0.05513   0.42509
C          C       0.88541   0.01358   0.36300
O          O       0.95338   0.90384   0.07593
C          C       0.85441   0.12543   0.46652
C          C       0.82785   0.12629   0.48747
C          C       0.81235   0.16700   0.04126
C          C       0.82325   0.20765   0.07619
C          C       0.85001   0.20749   0.05922
C          C       0.86544   0.16671   0.00470
C          C       0.08764   0.04409   0.02186
C          C       0.11001   0.06045   0.01064
C          C       0.11001   0.10759   0.06037
C          C       0.08833   0.13808   0.12253
C          C       0.06652   0.12226   0.13477
C          C       0.06566   0.07491   0.08342
C          C       0.13173   0.12374   0.04731
C          C       0.15392   0.09397   0.48753
C          C       0.15423   0.04815   0.44258
C          C       0.13246   0.03106   0.45137
C          C       0.00085   0.06091   0.15576
C          C       0.02366   0.08921   0.17073
O          O       0.04342   0.05612   0.08760
C          C       0.17651   0.11019   0.46991
C          C       0.20233   0.10050   0.47858
C          C       0.22351   0.11595   0.46203
C          C       0.21928   0.14126   0.43644
C          C       0.19357   0.15035   0.42602
C          C       0.17238   0.13486   0.44233
C          C       0.92089   0.92973   0.24219
C          C       0.90103   0.89885   0.21650
C          C       0.90512   0.87465   0.24618
C          C       0.92925   0.87850   0.29244
C          C       0.94880   0.90819   0.31557
C          C       0.94429   0.93569   0.29678
C          C       0.88492   0.84739   0.23084
C          C       0.86050   0.84321   0.18512
C          C       0.85705   0.86492   0.14960
C          C       0.87706   0.89211   0.16434
O          O       0.96308   0.96993   0.33554
C          C       0.83840   0.81813   0.17955
C          C       0.81281   0.83706   0.20666
C          C       0.79235   0.81566   0.20957
C          C       0.79701   0.77493   0.18577
C          C       0.82242   0.75539   0.15667
C          C       0.84286   0.77657   0.15298
O          O       0.00374   0.88971   0.11767
O          O       0.98945   0.02568   0.04147
C          C       0.97735   0.04955   0.01890
C          C       0.95488   0.01919   0.43310
C          C       0.99657   0.86848   0.00827
C          C       0.97610   0.90021   0.02255
C          C       0.44296   0.42359   0.14066
C          C       0.46761   0.39268   0.09644
C          C       0.47060   0.59947   0.18916
C          C       0.45930   0.58960   0.09047
H          H       0.99194   0.05432   0.48084
H          H       0.96920   0.08599   0.09760
H          H       0.94874   0.03491   0.40359
H          H       0.93807   0.02219   0.47853
H          H       0.98784   0.83240   0.45661
H          H       0.01344   0.86185   0.45769
H          H       0.97082   0.88344   0.43641
H          H       0.98476   0.93668   0.07688
H          H       0.43248   0.41345   0.06812
H          H       0.42994   0.41604   0.17681
H          H       0.47905   0.39443   0.04490
H          H       0.46177   0.35419   0.03650
H          H       0.46723   0.63833   0.27176
H          H       0.45985   0.57682   0.19192
H          H       0.46896   0.61419   0.09184
H          H       0.43802   0.59830   0.10354
H          H       0.14588   0.03182   0.23318
H          H       0.11809   0.05517   0.16400
H          H       0.54976   0.37232   0.22420
H          H       0.58036   0.34518   0.27877
H          H       0.61536   0.36219   0.40210
H          H       0.65001   0.50424   0.15967
H          H       0.62003   0.53282   0.10898
H          H       0.57456   0.66130   0.14890
H          H       0.54403   0.63301   0.19600
H          H       0.61221   0.64761   0.04314
H          H       0.65218   0.50951   0.30805
H          H       0.62240   0.47998   0.35261
H          H       0.43471   0.52009   0.18240
H          H       0.40061   0.58244   0.28095
H          H       0.36814   0.63393   0.43110
H          H       0.35381   0.62259   0.15633
H          H       0.38606   0.55747   0.05438
H          H       0.44949   0.42455   0.45987
H          H       0.47686   0.48541   0.00477
H          H       0.40781   0.38294   0.39744
H          H       0.34619   0.40993   0.27544
H          H       0.37350   0.46763   0.30991
H          H       0.49875   0.54682   0.19681
H          H       0.50115   0.61176   0.32760
H          H       0.54305   0.56225   0.26038
H          H       0.54558   0.61394   0.28974
H          H       0.50674   0.44876   0.19427
H          H       0.51957   0.39175   0.13343
H          H       0.51512   0.43056   0.33730
H          H       0.50704   0.48611   0.38611
H          H       0.30899   0.63782   0.11483
H          H       0.27641   0.70230   0.20363
H          H       0.33352   0.78375   0.21954
H          H       0.36581   0.71943   0.13018
H          H       0.34098   0.32508   0.15513
H          H       0.31076   0.27264   0.13281
H          H       0.33972   0.32919   0.45077
H          H       0.36964   0.38248   0.47511
H          H       0.62308   0.37374   0.05989
H          H       0.65339   0.34161   0.10289
H          H       0.71680   0.41953   0.13563
H          H       0.68662   0.45226   0.09409
H          H       0.68671   0.56315   0.37266
H          H       0.71403   0.58664   0.30535
H          H       0.64797   0.65897   0.32222
H          H       0.62019   0.63338   0.38376
H          H       0.29052   0.81190   0.26682
H          H       0.26660   0.76532   0.19048
H          H       0.25891   0.78430   0.36335
H          H       0.29438   0.28997   0.36644
H          H       0.28700   0.25648   0.22147
H          H       0.33424   0.23226   0.28756
H          H       0.70097   0.68092   0.34272
H          H       0.72075   0.62735   0.25911
H          H       0.67172   0.63963   0.17433
H          H       0.69662   0.32577   0.12050
H          H       0.72280   0.33898   0.07999
H          H       0.72690   0.42266   0.28418
H          H       0.27707   0.89615   0.44108
H          H       0.24538   0.94183   0.44208
H          H       0.18316   0.85192   0.36947
H          H       0.21499   0.80602   0.36853
H          H       0.68382   0.69485   0.17274
H          H       0.71558   0.72787   0.13996
H          H       0.77382   0.62647   0.04933
H          H       0.74223   0.59385   0.08305
H          H       0.70797   0.32523   0.26035
H          H       0.74031   0.27718   0.24980
H          H       0.80245   0.35838   0.28717
H          H       0.77012   0.40643   0.29777
H          H       0.32565   0.19955   0.35300
H          H       0.29712   0.15874   0.37321
H          H       0.23621   0.15129   0.18333
H          H       0.26517   0.18952   0.15730
H          H       0.17318   0.90815   0.36719
H          H       0.20211   0.86050   0.19397
H          H       0.22232   0.91232   0.27210
H          H       0.22712   0.12061   0.25210
H          H       0.23806   0.19706   0.46988
H          H       0.26016   0.15953   0.45908
H          H       0.78369   0.25258   0.23331
H          H       0.81724   0.27378   0.12663
H          H       0.79016   0.23327   0.05595
H          H       0.78551   0.67866   0.03950
H          H       0.78160   0.75238   0.25553
H          H       0.75755   0.77736   0.23387
H          H       0.06146   0.88212   0.23607
H          H       0.08858   0.86108   0.31229
H          H       0.11973   0.88383   0.45445
H          H       0.01634   0.98214   0.33201
H          H       0.02433   0.93344   0.31118
H          H       0.04429   0.89034   0.11458
H          H       0.02863   0.93830   0.14198
H          H       0.18646   0.97609   0.15490
H          H       0.21474   0.95326   0.22573
H          H       0.14967   0.88156   0.20691
H          H       0.12133   0.90488   0.13716
H          H       0.91792   0.02636   0.13930
H          H       0.88612   0.08314   0.28867
H          H       0.85806   0.06776   0.49468
H          H       0.88495   0.99550   0.38729
H          H       0.81887   0.09464   0.45780
H          H       0.79166   0.16605   0.05194
H          H       0.85883   0.23830   0.08516
H          H       0.88594   0.16702   0.49058
H          H       0.08820   0.17432   0.16172
H          H       0.05042   0.14743   0.18357
H          H       0.13149   0.15967   0.08483
H          H       0.17123   0.02495   0.39848
H          H       0.13353   0.99469   0.41169
H          H       0.03202   0.11380   0.25900
H          H       0.01587   0.11131   0.16041
H          H       0.20617   0.08154   0.49976
H          H       0.24322   0.10805   0.46910
H          H       0.18994   0.16947   0.40542
H          H       0.15274   0.14162   0.43198
H          H       0.93280   0.85914   0.31275
H          H       0.96723   0.91155   0.35308
H          H       0.88799   0.83081   0.25860
H          H       0.83872   0.86110   0.11092
H          H       0.87340   0.90842   0.13658
H          H       0.80869   0.86927   0.22903
H          H       0.77293   0.83131   0.23203
H          H       0.82650   0.72396   0.13810
H          H       0.86220   0.76043   0.12979
H          H       0.98559   0.08513   0.22079
H          H       0.00825   0.03901   0.16932
H          H       0.94735   0.95824   0.03862
C          C       0.59895   0.41527   0.91554
C          C       0.59984   0.46390   0.97393
C          C       0.58195   0.47944   0.94216
C          C       0.56313   0.44686   0.85503
C          C       0.56336   0.39829   0.79487
C          C       0.58095   0.38276   0.82542
C          C       0.61607   0.39966   0.94795
C          C       0.63440   0.43165   0.53748
C          C       0.63565   0.47939   0.59293
C          C       0.61849   0.49557   0.56267
C          C       0.58151   0.53039   0.50286
C          C       0.59948   0.54683   0.97573
C          C       0.59704   0.59465   0.52971
C          C       0.57702   0.62512   0.60909
C          C       0.55972   0.60906   0.63699
C          C       0.56224   0.56218   0.58696
C          C       0.61428   0.61109   0.50167
C          C       0.63417   0.58063   0.92050
C          C       0.63695   0.53379   0.87000
C          C       0.61972   0.51683   0.89590
C          C       0.39066   0.57946   0.89739
C          C       0.39601   0.55688   0.93064
C          C       0.41532   0.51963   0.87044
C          C       0.42902   0.50621   0.77941
C          C       0.42359   0.52941   0.74939
C          C       0.40435   0.56518   0.80641
C          C       0.37215   0.61705   0.95743
C          C       0.35875   0.63303   0.55114
C          C       0.36381   0.61055   0.58369
C          C       0.38236   0.57317   0.52487
C          C       0.42285   0.49628   0.90494
C          C       0.40664   0.46139   0.87993
C          C       0.41617   0.43616   0.90249
C          C       0.44165   0.44461   0.94543
C          C       0.45728   0.47924   0.97113
C          C       0.44783   0.50616   0.95478
C          C       0.40028   0.40223   0.88037
C          C       0.37484   0.39255   0.83530
C          C       0.36575   0.41652   0.80978
C          C       0.38144   0.45020   0.83097
O          O       0.45016   0.47370   0.72645
O          O       0.49779   0.58994   0.67305
C          C       0.50687   0.58158   0.73536
C          C       0.53666   0.57741   0.72958
O          O       0.54502   0.54461   0.61267
O          O       0.46418   0.54060   0.98111
O          O       0.48141   0.40778   0.69091
C          C       0.50685   0.42379   0.70144
C          C       0.51807   0.45164   0.81968
O          O       0.54494   0.46331   0.82719
C          C       0.65254   0.41464   0.57062
C          C       0.65127   0.59686   0.88487
C          C       0.33979   0.67373   0.61519
C          C       0.35759   0.35840   0.81752
C          C       0.31461   0.67009   0.63958
C          C       0.29605   0.70687   0.69038
C          C       0.30254   0.74815   0.71919
C          C       0.32805   0.75255   0.69895
C          C       0.34644   0.71567   0.64717
C          C       0.34082   0.32669   0.72081
C          C       0.32362   0.29656   0.70765
C          C       0.32291   0.29740   0.79068
C          C       0.34004   0.32807   0.88578
C          C       0.35720   0.35830   0.89918
C          C       0.64352   0.38385   0.57551
C          C       0.66078   0.36563   0.60051
C          C       0.68739   0.37782   0.62107
C          C       0.69634   0.40970   0.61977
C          C       0.67905   0.42822   0.59559
C          C       0.67791   0.58375   0.86113
C          C       0.69355   0.59710   0.82232
C          C       0.68299   0.62407   0.80693
C          C       0.65650   0.63770   0.83185
C          C       0.64075   0.62382   0.86921
C          C       0.28188   0.78487   0.75926
C          C       0.26869   0.81163   0.87404
C          C       0.28800   0.83739   0.96849
C          C       0.24855   0.84696   0.90245
C          C       0.30326   0.26718   0.78056
C          C       0.31584   0.22151   0.73780
C          C       0.32293   0.18602   0.61547
C          C       0.29767   0.19785   0.75365
C          C       0.70043   0.64063   0.77098
C          C       0.69145   0.62415   0.65996
C          C       0.68917   0.57093   0.56220
C          C       0.71058   0.64212   0.63144
C          C       0.70629   0.35579   0.64119
C          C       0.71710   0.39340   0.76561
C          C       0.69572   0.41604   0.84849
C          C       0.73658   0.36919   0.77836
C          C       0.25654   0.88706   0.92845
C          C       0.23842   0.91319   0.92902
C          C       0.21188   0.89990   0.90368
C          C       0.20352   0.86275   0.88827
C          C       0.22171   0.83652   0.88779
C          C       0.70338   0.67966   0.64554
C          C       0.72154   0.69861   0.62709
C          C       0.74727   0.68010   0.59296
C          C       0.75422   0.64168   0.57589
C          C       0.73617   0.62307   0.59537
C          C       0.72854   0.33341   0.76848
C          C       0.74701   0.30607   0.76284
C          C       0.77387   0.31379   0.76653
C          C       0.78185   0.35163   0.78368
C          C       0.76338   0.37908   0.78972
C          C       0.30622   0.18904   0.81517
C          C       0.28989   0.16586   0.82708
C          C       0.26443   0.15191   0.77979
C          C       0.25577   0.16137   0.71985
C          C       0.27227   0.18355   0.70570
N          N       0.30318   0.85762   0.54270
N          N       0.32852   0.15808   0.51926
N          N       0.67871   0.43377   0.91258
N          N       0.68747   0.52910   0.98521
C          C       0.19347   0.92037   0.87741
C          C       0.20190   0.90097   0.76326
C          C       0.19342   0.97389   0.97331
C          C       0.24639   0.12718   0.79284
C          C       0.24205   0.15895   0.92097
C          C       0.25714   0.07928   0.73114
C          C       0.79366   0.27824   0.73858
C          C       0.80601   0.24900   0.62087
C          C       0.81372   0.30403   0.83024
C          C       0.76760   0.70182   0.57808
C          C       0.77513   0.75349   0.69528
C          C       0.75797   0.70245   0.99792
N          N       0.19338   0.01593   0.54878
N          N       0.26551   0.04160   0.68266
N          N       0.82948   0.32426   0.90225
N          N       0.75061   0.70344   0.93566
C          C       0.10318   0.93401   0.95792
C          C       0.10268   0.98254   0.51547
C          C       0.08706   0.99454   0.96993
C          C       0.07134   0.95868   0.87128
C          C       0.07246   0.91067   0.81493
C          C       0.08812   0.89853   0.85797
C          C       0.11911   0.92126   0.99985
C          C       0.13474   0.95619   0.59849
C          C       0.13412   0.00429   0.65609
C          C       0.11814   0.01750   0.61587
O          O       0.05617   0.97102   0.82649
C          C       0.03021   0.95168   0.78826
C          C       0.02768   0.91667   0.65865
C          C       0.15179   0.94231   0.64097
C          C       0.17826   0.95572   0.66653
C          C       0.19437   0.94270   0.70699
C          C       0.18419   0.91653   0.72374
C          C       0.15780   0.90260   0.69679
C          C       0.14172   0.91546   0.65588
C          C       0.90155   0.02219   0.74674
C          C       0.90147   0.99642   0.77293
C          C       0.91831   0.95558   0.71157
C          C       0.93550   0.94216   0.62828
C          C       0.93464   0.96782   0.60238
C          C       0.91777   0.00706   0.66031
C          C       0.88598   0.06381   0.80963
C          C       0.87030   0.08081   0.89969
C          C       0.86993   0.05513   0.92509
C          C       0.88541   0.01358   0.86299
O          O       0.95338   0.90384   0.57593
C          C       0.85441   0.12543   0.96652
C          C       0.82785   0.12629   0.98747
C          C       0.81235   0.16700   0.54126
C          C       0.82325   0.20765   0.57618
C          C       0.85001   0.20749   0.55922
C          C       0.86544   0.16671   0.50470
C          C       0.08764   0.04409   0.52186
C          C       0.11001   0.06045   0.51064
C          C       0.11001   0.10759   0.56037
C          C       0.08833   0.13808   0.62253
C          C       0.06652   0.12226   0.63477
C          C       0.06566   0.07491   0.58342
C          C       0.13173   0.12374   0.54731
C          C       0.15392   0.09397   0.98753
C          C       0.15423   0.04815   0.94258
C          C       0.13246   0.03106   0.95137
C          C       0.00085   0.06091   0.65576
C          C       0.02366   0.08921   0.67073
O          O       0.04342   0.05612   0.58759
C          C       0.17651   0.11019   0.96991
C          C       0.20233   0.10050   0.97858
C          C       0.22351   0.11595   0.96203
C          C       0.21928   0.14126   0.93644
C          C       0.19357   0.15035   0.92602
C          C       0.17238   0.13486   0.94232
C          C       0.92089   0.92973   0.74219
C          C       0.90103   0.89885   0.71650
C          C       0.90512   0.87465   0.74618
C          C       0.92925   0.87850   0.79244
C          C       0.94880   0.90819   0.81557
C          C       0.94429   0.93569   0.79678
C          C       0.88492   0.84739   0.73084
C          C       0.86050   0.84321   0.68512
C          C       0.85705   0.86492   0.64960
C          C       0.87706   0.89211   0.66434
O          O       0.96308   0.96993   0.83554
C          C       0.83840   0.81813   0.67956
C          C       0.81281   0.83706   0.70666
C          C       0.79235   0.81566   0.70957
C          C       0.79701   0.77493   0.68577
C          C       0.82242   0.75539   0.65667
C          C       0.84286   0.77657   0.65298
O          O       0.00374   0.88971   0.61767
O          O       0.98945   0.02568   0.54148
C          C       0.97735   0.04955   0.51890
C          C       0.95488   0.01919   0.93310
C          C       0.99657   0.86848   0.50827
C          C       0.97610   0.90021   0.52255
C          C       0.44296   0.42359   0.64066
C          C       0.46761   0.39268   0.59644
C          C       0.47060   0.59947   0.68916
C          C       0.45930   0.58960   0.59047
H          H       0.99194   0.05432   0.98084
H          H       0.96920   0.08599   0.59760
H          H       0.94874   0.03491   0.90359
H          H       0.93807   0.02219   0.97853
H          H       0.98784   0.83240   0.95661
H          H       0.01344   0.86185   0.95769
H          H       0.97082   0.88344   0.93641
H          H       0.98476   0.93668   0.57688
H          H       0.43248   0.41345   0.56812
H          H       0.42994   0.41604   0.67681
H          H       0.47905   0.39443   0.54490
H          H       0.46177   0.35419   0.53650
H          H       0.46723   0.63833   0.77176
H          H       0.45985   0.57682   0.69192
H          H       0.46896   0.61419   0.59184
H          H       0.43802   0.59830   0.60353
H          H       0.14588   0.03182   0.73318
H          H       0.11809   0.05517   0.66400
H          H       0.54976   0.37232   0.72420
H          H       0.58036   0.34518   0.77876
H          H       0.61536   0.36219   0.90211
H          H       0.65001   0.50424   0.65966
H          H       0.62003   0.53282   0.60898
H          H       0.57456   0.66130   0.64890
H          H       0.54403   0.63301   0.69600
H          H       0.61221   0.64761   0.54314
H          H       0.65218   0.50951   0.80805
H          H       0.62240   0.47998   0.85260
H          H       0.43471   0.52009   0.68241
H          H       0.40061   0.58244   0.78095
H          H       0.36814   0.63393   0.93110
H          H       0.35381   0.62259   0.65633
H          H       0.38606   0.55747   0.55438
H          H       0.44949   0.42455   0.95987
H          H       0.47686   0.48541   0.50477
H          H       0.40781   0.38294   0.89744
H          H       0.34619   0.40993   0.77544
H          H       0.37350   0.46763   0.80991
H          H       0.49875   0.54682   0.69681
H          H       0.50115   0.61176   0.82760
H          H       0.54305   0.56225   0.76038
H          H       0.54558   0.61394   0.78974
H          H       0.50674   0.44876   0.69427
H          H       0.51957   0.39175   0.63343
H          H       0.51512   0.43056   0.83730
H          H       0.50704   0.48611   0.88611
H          H       0.30899   0.63782   0.61483
H          H       0.27641   0.70230   0.70363
H          H       0.33352   0.78375   0.71954
H          H       0.36581   0.71943   0.63017
H          H       0.34098   0.32508   0.65513
H          H       0.31076   0.27264   0.63281
H          H       0.33972   0.32919   0.95077
H          H       0.36964   0.38248   0.97511
H          H       0.62308   0.37374   0.55989
H          H       0.65339   0.34161   0.60289
H          H       0.71680   0.41953   0.63563
H          H       0.68662   0.45226   0.59409
H          H       0.68671   0.56315   0.87266
H          H       0.71403   0.58664   0.80535
H          H       0.64797   0.65897   0.82222
H          H       0.62019   0.63338   0.88375
H          H       0.29052   0.81190   0.76682
H          H       0.26660   0.76532   0.69048
H          H       0.25891   0.78430   0.86335
H          H       0.29438   0.28997   0.86644
H          H       0.28700   0.25648   0.72147
H          H       0.33424   0.23226   0.78755
H          H       0.70097   0.68092   0.84272
H          H       0.72075   0.62735   0.75910
H          H       0.67172   0.63963   0.67432
H          H       0.69662   0.32577   0.62050
H          H       0.72280   0.33898   0.58000
H          H       0.72690   0.42266   0.78417
H          H       0.27707   0.89615   0.94108
H          H       0.24538   0.94183   0.94208
H          H       0.18316   0.85192   0.86947
H          H       0.21499   0.80602   0.86853
H          H       0.68382   0.69485   0.67274
H          H       0.71558   0.72787   0.63996
H          H       0.77382   0.62647   0.54932
H          H       0.74223   0.59385   0.58305
H          H       0.70797   0.32523   0.76035
H          H       0.74031   0.27718   0.74981
H          H       0.80245   0.35838   0.78717
H          H       0.77012   0.40643   0.79777
H          H       0.32565   0.19955   0.85300
H          H       0.29712   0.15874   0.87321
H          H       0.23621   0.15129   0.68333
H          H       0.26517   0.18952   0.65730
H          H       0.17318   0.90815   0.86719
H          H       0.20211   0.86050   0.69397
H          H       0.22232   0.91232   0.77210
H          H       0.22712   0.12061   0.75210
H          H       0.23806   0.19706   0.96988
H          H       0.26016   0.15953   0.95908
H          H       0.78369   0.25258   0.73331
H          H       0.81724   0.27378   0.62663
H          H       0.79016   0.23327   0.55595
H          H       0.78551   0.67866   0.53949
H          H       0.78160   0.75238   0.75553
H          H       0.75755   0.77736   0.73387
H          H       0.06146   0.88212   0.73607
H          H       0.08858   0.86108   0.81229
H          H       0.11973   0.88383   0.95445
H          H       0.01634   0.98214   0.83201
H          H       0.02433   0.93344   0.81118
H          H       0.04429   0.89034   0.61458
H          H       0.02863   0.93830   0.64198
H          H       0.18646   0.97609   0.65490
H          H       0.21474   0.95326   0.72573
H          H       0.14967   0.88156   0.70691
H          H       0.12133   0.90488   0.63716
H          H       0.91792   0.02636   0.63929
H          H       0.88612   0.08314   0.78867
H          H       0.85806   0.06776   0.99468
H          H       0.88495   0.99550   0.88729
H          H       0.81887   0.09464   0.95779
H          H       0.79166   0.16605   0.55194
H          H       0.85883   0.23830   0.58516
H          H       0.88594   0.16702   0.99058
H          H       0.08820   0.17432   0.66172
H          H       0.05042   0.14743   0.68356
H          H       0.13149   0.15967   0.58483
H          H       0.17123   0.02495   0.89848
H          H       0.13353   0.99469   0.91169
H          H       0.03202   0.11380   0.75901
H          H       0.01587   0.11131   0.66041
H          H       0.20617   0.08154   0.99976
H          H       0.24322   0.10805   0.96910
H          H       0.18994   0.16947   0.90542
H          H       0.15274   0.14162   0.93198
H          H       0.93280   0.85914   0.81275
H          H       0.96723   0.91155   0.85308
H          H       0.88799   0.83081   0.75859
H          H       0.83872   0.86110   0.61092
H          H       0.87340   0.90842   0.63658
H          H       0.80869   0.86927   0.72903
H          H       0.77293   0.83131   0.73204
H          H       0.82650   0.72396   0.63810
H          H       0.86220   0.76043   0.62979
H          H       0.98559   0.08513   0.72079
H          H       0.00825   0.03901   0.66932
H          H       0.94735   0.95824   0.53862
