data_crystal

_cell_length_a    50.70000
_cell_length_b    50.00000
_cell_length_c    19.40000
_cell_angle_alpha 144.10000
_cell_angle_beta  88.30000
_cell_angle_gamma 90.80000

_space_group_name_Hall 'P 1'
_space_group_name_H-M_alt  'P 1'

loop_
_symmetry_equiv_pos_as_xyz
'x,y,z'

loop_
_atom_site_label
_atom_site_type_symbol
_atom_site_fract_x
_atom_site_fract_y
_atom_site_fract_z
C          C       0.26324   0.81356   0.03398
C          C       0.25715   0.21672   0.19298
C          C       0.68848   0.37635   0.44133
C          C       0.27256   0.85363   0.08644
C          C       0.25938   0.87316   0.07215
C          C       0.23657   0.85317   0.00553
C          C       0.22604   0.81530   0.46108
C          C       0.23932   0.79556   0.47493
C          C       0.71402   0.39191   0.48551
C          C       0.72752   0.37788   0.01439
C          C       0.71581   0.34805   0.00008
C          C       0.69016   0.33282   0.45707
C          C       0.67667   0.34673   0.42758
C          C       0.68411   0.69256   0.00035
C          C       0.71057   0.68039   0.46018
C          C       0.72290   0.69349   0.42557
C          C       0.70899   0.71844   0.42819
C          C       0.68256   0.73106   0.46970
C          C       0.67038   0.71870   0.00672
C          C       0.22948   0.21702   0.19321
C          C       0.21481   0.20198   0.21924
C          C       0.22749   0.18579   0.24435
C          C       0.25521   0.18590   0.24507
C          C       0.26987   0.20116   0.21953
C          C       0.46709   0.43901   0.38305
C          C       0.49709   0.43465   0.37411
C          C       0.48986   0.51875   0.24368
C          C       0.47064   0.55574   0.34910
C          C       0.61021   0.43962   0.10225
C          C       0.61262   0.48704   0.18939
C          C       0.59895   0.50756   0.17744
C          C       0.58357   0.48070   0.07844
C          C       0.58204   0.43364   0.49124
C          C       0.59501   0.41327   0.00352
C          C       0.62306   0.41913   0.11486
C          C       0.63889   0.44496   0.21186
C          C       0.64185   0.49161   0.29588
C          C       0.62881   0.51250   0.28544
C          C       0.59858   0.55762   0.27152
C          C       0.61106   0.57781   0.25533
C          C       0.60817   0.62538   0.34406
C          C       0.59408   0.65228   0.44903
C          C       0.58248   0.63226   0.46568
C          C       0.58392   0.58488   0.37606
C          C       0.61963   0.64554   0.32722
C          C       0.63497   0.61937   0.22518
C          C       0.63845   0.57254   0.13926
C          C       0.62651   0.55187   0.15339
C          C       0.41115   0.58285   0.16979
C          C       0.40483   0.56052   0.18616
C          C       0.42119   0.52414   0.13236
C          C       0.44279   0.50903   0.05912
C          C       0.44941   0.53288   0.04827
C          C       0.43361   0.56921   0.10216
C          C       0.39492   0.61856   0.22132
C          C       0.37211   0.63184   0.28722
C          C       0.36587   0.60979   0.30341
C          C       0.38216   0.57487   0.25472
C          C       0.41618   0.50119   0.15148
C          C       0.39755   0.46604   0.08523
C          C       0.39294   0.44610   0.10928
C          C       0.40735   0.46037   0.19561
C          C       0.42566   0.49517   0.26079
C          C       0.43008   0.51602   0.23987
C          C       0.37337   0.41319   0.04932
C          C       0.35802   0.40004   0.46617
C          C       0.36327   0.41883   0.43999
C          C       0.38285   0.45123   0.49816
O          O       0.45781   0.47116   0.00191
O          O       0.51601   0.53513   0.27413
C          C       0.52799   0.53387   0.33691
C          C       0.54524   0.57587   0.43210
O          O       0.57230   0.56412   0.39124
O          O       0.44597   0.55473   0.31290
O          O       0.50860   0.47466   0.43034
C          C       0.53624   0.47358   0.43717
C          C       0.54300   0.49563   0.05165
O          O       0.57103   0.50106   0.06485
C          C       0.65195   0.42371   0.22724
C          C       0.64745   0.64075   0.20808
C          C       0.35446   0.66801   0.33652
C          C       0.33551   0.36888   0.41182
C          C       0.32758   0.65961   0.31071
C          C       0.31127   0.69258   0.34976
C          C       0.32148   0.73474   0.41726
C          C       0.34816   0.74368   0.44647
C          C       0.36457   0.71044   0.40571
C          C       0.32995   0.33546   0.29257
C          C       0.30767   0.30830   0.24416
C          C       0.29067   0.31403   0.31397
C          C       0.29641   0.34675   0.43229
C          C       0.31859   0.37396   0.48084
C          C       0.63849   0.39232   0.20401
C          C       0.65032   0.37429   0.22486
C          C       0.67572   0.38751   0.26976
C          C       0.68931   0.41833   0.29155
C          C       0.67763   0.43604   0.26975
C          C       0.67343   0.62875   0.16233
C          C       0.68495   0.64763   0.14231
C          C       0.67085   0.67917   0.16873
C          C       0.64505   0.69172   0.21582
C          C       0.63340   0.67263   0.23528
C          C       0.30489   0.76799   0.44680
C          C       0.28039   0.78691   0.02720
C          C       0.28787   0.81589   0.14595
C          C       0.26626   0.28580   0.26293
C          C       0.27304   0.23473   0.16950
C          C       0.26844   0.20677   0.04945
C          C       0.68293   0.69760   0.14116
C          C       0.67039   0.67663   0.03289
C          C       0.67119   0.62638   0.43009
C          C       0.68794   0.37032   0.29911
C          C       0.67410   0.39077   0.40751
C          C       0.67239   0.44094   0.00921
N          N       0.29369   0.83872   0.23933
N          N       0.26483   0.18496   0.45535
N          N       0.67107   0.48028   0.08850
N          N       0.67185   0.58699   0.34984
C          C       0.76232   0.29990   0.06777
C          C       0.75100   0.75942   0.32793
C          C       0.20398   0.90608   0.42943
C          C       0.76217   0.34624   0.14637
C          C       0.74672   0.36201   0.12553
C          C       0.73079   0.33192   0.02662
C          C       0.73027   0.28588   0.45025
C          C       0.74596   0.27000   0.47040
C          C       0.23114   0.89658   0.41338
C          C       0.24159   0.87943   0.43824
C          C       0.22504   0.87011   0.47627
C          C       0.19773   0.87685   0.48513
C          C       0.18732   0.89555   0.46422
C          C       0.18271   0.13733   0.32014
C          C       0.20688   0.11641   0.25661
C          C       0.22116   0.13165   0.23050
C          C       0.21192   0.16890   0.26976
C          C       0.18779   0.18996   0.33397
C          C       0.17335   0.17430   0.35876
C          C       0.73098   0.78759   0.41604
C          C       0.71683   0.77389   0.44668
C          C       0.72229   0.73157   0.38921
C          C       0.74143   0.70248   0.29686
C          C       0.75571   0.71633   0.26706
C          C       0.96710   0.93489   0.22707
C          C       0.99097   0.96344   0.30538
C          C       0.97650   0.05965   0.26435
C          C       0.96804   0.05649   0.18260
C          C       0.09458   0.94865   0.08721
C          C       0.09641   0.99530   0.16669
C          C       0.08186   0.01251   0.14702
C          C       0.06593   0.98340   0.04831
C          C       0.06447   0.93713   0.46981
C          C       0.07835   0.92008   0.49007
C          C       0.10970   0.93091   0.10375
C          C       0.12714   0.95890   0.19724
C          C       0.12884   0.00488   0.27489
C          C       0.11352   0.02311   0.26122
C          C       0.08386   0.06075   0.22599
C          C       0.09893   0.07315   0.19253
C          C       0.09920   0.11937   0.26805
C          C       0.08541   0.15257   0.37684
C          C       0.07130   0.14019   0.41080
C          C       0.07005   0.09439   0.33522
C          C       0.11348   0.13186   0.23425
C          C       0.12834   0.09919   0.12796
C          C       0.12887   0.05383   0.05578
C          C       0.11410   0.04076   0.08657
C          C       0.90113   0.06673   0.05124
C          C       0.90531   0.04283   0.06361
C          C       0.92065   0.00197   0.47670
C          C       0.93160   0.98527   0.37879
C          C       0.92721   0.00959   0.36834
C          C       0.91228   0.05002   0.45407
C          C       0.88570   0.10692   0.13579
C          C       0.87435   0.12400   0.23352
C          C       0.87873   0.10049   0.24609
C          C       0.89397   0.06042   0.16241
C          C       0.92623   0.97634   0.48717
C          C       0.90737   0.94734   0.45825
C          C       0.91428   0.92203   0.46470
C          C       0.93965   0.92524   0.49750
C          C       0.95795   0.95424   0.02697
C          C       0.95116   0.98072   0.02553
C          C       0.89571   0.89397   0.43893
C          C       0.87006   0.89113   0.40843
C          C       0.86323   0.91589   0.40135
C          C       0.88172   0.94329   0.42452
O          O       0.94490   0.94260   0.28981
O          O       0.00233   0.04133   0.23193
C          C       0.01263   0.05219   0.31983
C          C       0.02948   0.09503   0.40420
O          O       0.05688   0.08217   0.37150
O          O       0.96973   0.01085   0.06032
O          O       0.00872   0.93630   0.28695
C          C       0.03181   0.96065   0.35225
C          C       0.02914   0.98456   0.47207
O          O       0.05460   0.00053   0.02372
C          C       0.14397   0.94046   0.21375
C          C       0.14269   0.11198   0.09027
C          C       0.85777   0.16620   0.32205
C          C       0.85029   0.86330   0.38769
C          C       0.83881   0.17319   0.28614
C          C       0.82318   0.21294   0.36963
C          C       0.82632   0.24641   0.49026
C          C       0.84514   0.23951   0.02652
C          C       0.86070   0.19967   0.44310
C          C       0.82586   0.88262   0.44921
C          C       0.80808   0.85755   0.43741
C          C       0.81426   0.81254   0.36225
C          C       0.83834   0.79278   0.29801
C          C       0.85628   0.81805   0.31110
C          C       0.13371   0.91024   0.20032
C          C       0.14954   0.89387   0.21884
C          C       0.17587   0.90726   0.25041
C          C       0.18620   0.93718   0.26321
C          C       0.17036   0.95391   0.24584
C          C       0.16844   0.09540   0.04163
C          C       0.18110   0.10447   0.49719
C          C       0.16841   0.13096   0.00280
C          C       0.14302   0.14868   0.05459
C          C       0.13016   0.13894   0.09706
C          C       0.81008   0.28983   0.07932
C          C       0.78070   0.28198   0.08458
C          C       0.77401   0.30373   0.19700
C          C       0.79630   0.78708   0.35830
C          C       0.76900   0.77736   0.30834
C          C       0.77113   0.74469   0.18224
C          C       0.18235   0.14185   0.45809
C          C       0.16803   0.12326   0.35615
C          C       0.16531   0.07335   0.25511
C          C       0.19263   0.89105   0.27477
C          C       0.19269   0.92671   0.40809
C          C       0.20770   0.96734   0.47215
N          N       0.76884   0.32090   0.28546
N          N       0.77283   0.71892   0.08312
N          N       0.21963   0.99891   0.02124
N          N       0.16301   0.03423   0.17633
H          H       0.21477   0.08847   0.22815
H          H       0.23948   0.11422   0.17958
H          H       0.18032   0.21921   0.36733
H          H       0.15514   0.19176   0.41056
H          H       0.11565   0.05892   0.32399
H          H       0.08583   0.18814   0.43617
H          H       0.06141   0.16617   0.49648
H          H       0.11339   0.16712   0.29136
H          H       0.14035   0.02810   0.47395
H          H       0.11490   0.00523   0.02733
H          H       0.02546   0.02328   0.27579
H          H       0.99705   0.05637   0.37012
H          H       0.02634   0.11566   0.49505
H          H       0.02272   0.11616   0.40432
H          H       0.17861   0.07514   0.03731
H          H       0.20088   0.09114   0.45926
H          H       0.13306   0.16967   0.06105
H          H       0.11016   0.15146   0.13251
H          H       0.18361   0.17953   0.03253
H          H       0.20302   0.12839   0.42962
H          H       0.14767   0.13779   0.38632
H          H       0.29078   0.86849   0.13371
H          H       0.26744   0.90313   0.10994
H          H       0.20839   0.79946   0.40990
H          H       0.23169   0.76478   0.43395
H          H       0.72358   0.41466   0.49657
H          H       0.74749   0.38928   0.04455
H          H       0.68051   0.31040   0.44701
H          H       0.65707   0.33414   0.39333
H          H       0.72165   0.66037   0.45479
H          H       0.74352   0.68449   0.39807
H          H       0.67112   0.74961   0.47111
H          H       0.65009   0.72903   0.03885
H          H       0.21936   0.22933   0.17400
H          H       0.19352   0.20240   0.21810
H          H       0.26556   0.17501   0.26772
H          H       0.29118   0.20122   0.22168
H          H       0.46070   0.44701   0.34666
H          H       0.45876   0.40527   0.32586
H          H       0.50322   0.40469   0.27913
H          H       0.50278   0.42825   0.41500
H          H       0.48820   0.48684   0.20787
H          H       0.48387   0.51007   0.17225
H          H       0.47960   0.58940   0.40851
H          H       0.46801   0.55349   0.40133
H          H       0.57083   0.41290   0.41361
H          H       0.59334   0.37687   0.43545
H          H       0.62098   0.38296   0.04846
H          H       0.65398   0.51230   0.37123
H          H       0.63158   0.54865   0.35288
H          H       0.59229   0.68885   0.01864
H          H       0.57242   0.65359   0.04861
H          H       0.61700   0.68176   0.39440
H          H       0.65016   0.55163   0.05994
H          H       0.62958   0.51555   0.08432
H          H       0.46718   0.52363   0.49958
H          H       0.43893   0.58669   0.09115
H          H       0.39963   0.63534   0.20788
H          H       0.34843   0.62002   0.35495
H          H       0.37674   0.55898   0.27019
H          H       0.40388   0.44549   0.21511
H          H       0.43543   0.50698   0.33068
H          H       0.36977   0.39832   0.06876
H          H       0.35153   0.40963   0.37724
H          H       0.38591   0.46537   0.47655
H          H       0.54060   0.50257   0.27509
H          H       0.51348   0.53357   0.38069
H          H       0.54390   0.58822   0.01216
H          H       0.53715   0.60343   0.45657
H          H       0.54587   0.49376   0.43739
H          H       0.54527   0.43871   0.36046
H          H       0.53488   0.47545   0.05353
H          H       0.53300   0.52967   0.12628
H          H       0.31951   0.62688   0.25649
H          H       0.29089   0.68470   0.32438
H          H       0.35644   0.77593   0.49815
H          H       0.38522   0.71759   0.42727
H          H       0.34283   0.33042   0.23702
H          H       0.30350   0.28298   0.15249
H          H       0.28355   0.35160   0.48753
H          H       0.32212   0.39992   0.07334
H          H       0.61853   0.38277   0.17305
H          H       0.63953   0.35073   0.20831
H          H       0.70880   0.42930   0.32749
H          H       0.68867   0.45940   0.28610
H          H       0.68485   0.60494   0.14275
H          H       0.70478   0.63715   0.10459
H          H       0.63383   0.71565   0.23538
H          H       0.61320   0.68182   0.26868
H          H       0.31714   0.79679   0.48826
H          H       0.29837   0.75003   0.36225
H          H       0.26907   0.75811   0.48933
H          H       0.25366   0.29997   0.33575
H          H       0.25435   0.29020   0.22513
H          H       0.29440   0.23063   0.17144
H          H       0.68031   0.73531   0.21947
H          H       0.70459   0.69089   0.12589
H          H       0.64920   0.68689   0.05427
H          H       0.68681   0.33251   0.22133
H          H       0.70931   0.37831   0.31493
H          H       0.65349   0.37853   0.38510
H          H       0.77452   0.36991   0.22242
H          H       0.74730   0.39775   0.18645
H          H       0.71848   0.26184   0.37247
H          H       0.74574   0.23412   0.40844
H          H       0.97550   0.09630   0.35617
H          H       0.96231   0.04077   0.25859
H          H       0.98147   0.07810   0.19610
H          H       0.94783   0.07108   0.20830
H          H       0.88271   0.12518   0.12618
H          H       0.86988   0.11275   0.31997
H          H       0.89665   0.04329   0.17544
H          H       0.83590   0.14761   0.19341
H          H       0.80868   0.21787   0.34057
H          H       0.84779   0.26500   0.11933
H          H       0.87533   0.19527   0.47301
H          H       0.81889   0.31614   0.16765
H          H       0.81192   0.30369   0.05489
H          H       0.77730   0.24494   0.01484
H          H       0.24430   0.90337   0.38384
H          H       0.26265   0.87295   0.42661
H          H       0.18455   0.86881   0.01144
H          H       0.16625   0.90186   0.47530
H          H       0.05341   0.91377   0.39039
H          H       0.07705   0.88419   0.42774
H          H       0.10858   0.89507   0.04185
H          H       0.14215   0.02694   0.34671
H          H       0.01958   0.96199   0.46401
H          H       0.01557   0.01434   0.02994
H          H       0.11330   0.90016   0.17820
H          H       0.14117   0.87129   0.21031
H          H       0.20656   0.94756   0.28675
H          H       0.17894   0.97647   0.25455
H          H       0.18477   0.85840   0.22706
H          H       0.21306   0.88322   0.23856
H          H       0.17207   0.93867   0.44449
H          H       0.72710   0.82109   0.46487
H          H       0.70244   0.79732   0.01890
H          H       0.74558   0.66909   0.24825
H          H       0.77098   0.69392   0.19841
H          H       0.96179   0.94019   0.18366
H          H       0.97314   0.89838   0.15439
H          H       0.98408   0.99393   0.39915
H          H       0.00066   0.97489   0.28012
H          H       0.93448   0.99690   0.29244
H          H       0.90901   0.06785   0.44328
H          H       0.94525   0.90546   0.00078
H          H       0.97752   0.95704   0.05302
H          H       0.90095   0.87523   0.44569
H          H       0.84354   0.91367   0.37689
H          H       0.87572   0.96160   0.41719
H          H       0.03772   0.98559   0.36357
H          H       0.04854   0.93582   0.30312
H          H       0.82103   0.91767   0.00977
H          H       0.78980   0.87362   0.48924
H          H       0.84349   0.75812   0.23967
H          H       0.87496   0.80250   0.26227
H          H       0.80585   0.75446   0.30601
H          H       0.79372   0.80798   0.44978
H          H       0.76043   0.80943   0.35461
C          C       0.26324   0.81356   0.53398
C          C       0.25715   0.21672   0.69299
C          C       0.68848   0.37635   0.94133
C          C       0.27256   0.85363   0.58644
C          C       0.25938   0.87316   0.57215
C          C       0.23657   0.85317   0.50553
C          C       0.22604   0.81530   0.96108
C          C       0.23932   0.79556   0.97493
C          C       0.71402   0.39191   0.98551
C          C       0.72752   0.37788   0.51439
C          C       0.71581   0.34805   0.50008
C          C       0.69016   0.33282   0.95707
C          C       0.67667   0.34673   0.92758
C          C       0.68411   0.69256   0.50035
C          C       0.71057   0.68039   0.96018
C          C       0.72290   0.69349   0.92558
C          C       0.70899   0.71844   0.92819
C          C       0.68256   0.73106   0.96970
C          C       0.67038   0.71870   0.50672
C          C       0.22948   0.21702   0.69321
C          C       0.21481   0.20198   0.71925
C          C       0.22749   0.18579   0.74435
C          C       0.25521   0.18590   0.74507
C          C       0.26987   0.20116   0.71953
C          C       0.46709   0.43901   0.88305
C          C       0.49709   0.43465   0.87411
C          C       0.48986   0.51875   0.74368
C          C       0.47064   0.55574   0.84910
C          C       0.61021   0.43962   0.60225
C          C       0.61262   0.48704   0.68939
C          C       0.59895   0.50756   0.67744
C          C       0.58357   0.48070   0.57845
C          C       0.58204   0.43364   0.99124
C          C       0.59501   0.41327   0.50352
C          C       0.62306   0.41913   0.61486
C          C       0.63889   0.44496   0.71186
C          C       0.64185   0.49161   0.79588
C          C       0.62881   0.51250   0.78544
C          C       0.59858   0.55762   0.77152
C          C       0.61106   0.57781   0.75533
C          C       0.60817   0.62538   0.84406
C          C       0.59408   0.65228   0.94903
C          C       0.58248   0.63226   0.96568
C          C       0.58392   0.58488   0.87606
C          C       0.61963   0.64554   0.82722
C          C       0.63497   0.61937   0.72519
C          C       0.63845   0.57254   0.63926
C          C       0.62651   0.55187   0.65340
C          C       0.41115   0.58285   0.66979
C          C       0.40483   0.56052   0.68616
C          C       0.42119   0.52414   0.63236
C          C       0.44279   0.50903   0.55912
C          C       0.44941   0.53288   0.54827
C          C       0.43361   0.56921   0.60216
C          C       0.39492   0.61856   0.72132
C          C       0.37211   0.63184   0.78723
C          C       0.36587   0.60979   0.80341
C          C       0.38216   0.57487   0.75472
C          C       0.41618   0.50119   0.65148
C          C       0.39755   0.46604   0.58523
C          C       0.39294   0.44610   0.60928
C          C       0.40735   0.46037   0.69561
C          C       0.42566   0.49517   0.76079
C          C       0.43008   0.51602   0.73987
C          C       0.37337   0.41319   0.54932
C          C       0.35802   0.40004   0.96617
C          C       0.36327   0.41883   0.93999
C          C       0.38285   0.45123   0.99816
O          O       0.45781   0.47116   0.50191
O          O       0.51601   0.53513   0.77413
C          C       0.52799   0.53387   0.83691
C          C       0.54524   0.57587   0.93210
O          O       0.57230   0.56412   0.89124
O          O       0.44597   0.55473   0.81290
O          O       0.50860   0.47466   0.93034
C          C       0.53624   0.47358   0.93717
C          C       0.54300   0.49563   0.55165
O          O       0.57103   0.50106   0.56485
C          C       0.65195   0.42371   0.72724
C          C       0.64745   0.64075   0.70809
C          C       0.35446   0.66801   0.83652
C          C       0.33551   0.36888   0.91181
C          C       0.32758   0.65961   0.81071
C          C       0.31127   0.69258   0.84976
C          C       0.32148   0.73474   0.91725
C          C       0.34816   0.74368   0.94647
C          C       0.36457   0.71044   0.90571
C          C       0.32995   0.33546   0.79257
C          C       0.30767   0.30830   0.74416
C          C       0.29067   0.31403   0.81397
C          C       0.29641   0.34675   0.93229
C          C       0.31859   0.37396   0.98084
C          C       0.63849   0.39232   0.70401
C          C       0.65032   0.37429   0.72486
C          C       0.67572   0.38751   0.76976
C          C       0.68931   0.41833   0.79155
C          C       0.67763   0.43604   0.76975
C          C       0.67343   0.62875   0.66233
C          C       0.68495   0.64763   0.64231
C          C       0.67085   0.67917   0.66873
C          C       0.64505   0.69172   0.71581
C          C       0.63340   0.67263   0.73528
C          C       0.30489   0.76799   0.94680
C          C       0.28039   0.78691   0.52720
C          C       0.28787   0.81589   0.64595
C          C       0.26626   0.28580   0.76292
C          C       0.27304   0.23473   0.66950
C          C       0.26844   0.20677   0.54946
C          C       0.68293   0.69760   0.64116
C          C       0.67039   0.67663   0.53289
C          C       0.67119   0.62638   0.93009
C          C       0.68794   0.37032   0.79911
C          C       0.67410   0.39077   0.90751
C          C       0.67239   0.44094   0.50921
N          N       0.29369   0.83872   0.73933
N          N       0.26483   0.18496   0.95535
N          N       0.67107   0.48028   0.58850
N          N       0.67185   0.58699   0.84984
C          C       0.76232   0.29990   0.56777
C          C       0.75100   0.75942   0.82793
C          C       0.20398   0.90608   0.92943
C          C       0.76217   0.34624   0.64637
C          C       0.74672   0.36201   0.62553
C          C       0.73079   0.33192   0.52662
C          C       0.73027   0.28588   0.95024
C          C       0.74596   0.27000   0.97041
C          C       0.23114   0.89658   0.91338
C          C       0.24159   0.87943   0.93824
C          C       0.22504   0.87011   0.97627
C          C       0.19773   0.87685   0.98513
C          C       0.18732   0.89555   0.96422
C          C       0.18271   0.13733   0.82014
C          C       0.20688   0.11641   0.75660
C          C       0.22116   0.13165   0.73050
C          C       0.21192   0.16890   0.76977
C          C       0.18779   0.18996   0.83397
C          C       0.17335   0.17430   0.85876
C          C       0.73098   0.78759   0.91604
C          C       0.71683   0.77389   0.94668
C          C       0.72229   0.73157   0.88921
C          C       0.74143   0.70248   0.79686
C          C       0.75571   0.71633   0.76707
C          C       0.96710   0.93489   0.72708
C          C       0.99097   0.96344   0.80538
C          C       0.97650   0.05965   0.76435
C          C       0.96804   0.05649   0.68260
C          C       0.09458   0.94865   0.58721
C          C       0.09641   0.99530   0.66669
C          C       0.08186   0.01251   0.64703
C          C       0.06593   0.98340   0.54831
C          C       0.06447   0.93713   0.96980
C          C       0.07835   0.92008   0.99007
C          C       0.10970   0.93091   0.60375
C          C       0.12714   0.95890   0.69724
C          C       0.12884   0.00488   0.77489
C          C       0.11352   0.02311   0.76122
C          C       0.08386   0.06075   0.72600
C          C       0.09893   0.07315   0.69253
C          C       0.09920   0.11937   0.76805
C          C       0.08541   0.15257   0.87684
C          C       0.07130   0.14019   0.91080
C          C       0.07005   0.09439   0.83522
C          C       0.11348   0.13186   0.73425
C          C       0.12834   0.09919   0.62796
C          C       0.12887   0.05383   0.55578
C          C       0.11410   0.04076   0.58657
C          C       0.90113   0.06673   0.55124
C          C       0.90531   0.04283   0.56361
C          C       0.92065   0.00197   0.97669
C          C       0.93160   0.98527   0.87879
C          C       0.92721   0.00959   0.86834
C          C       0.91228   0.05002   0.95407
C          C       0.88570   0.10692   0.63579
C          C       0.87435   0.12400   0.73352
C          C       0.87873   0.10049   0.74609
C          C       0.89397   0.06042   0.66241
C          C       0.92623   0.97634   0.98717
C          C       0.90737   0.94734   0.95825
C          C       0.91428   0.92203   0.96470
C          C       0.93965   0.92524   0.99750
C          C       0.95795   0.95424   0.52697
C          C       0.95116   0.98072   0.52553
C          C       0.89571   0.89397   0.93893
C          C       0.87006   0.89113   0.90843
C          C       0.86323   0.91589   0.90134
C          C       0.88172   0.94329   0.92453
O          O       0.94490   0.94260   0.78982
O          O       0.00233   0.04133   0.73193
C          C       0.01263   0.05219   0.81983
C          C       0.02948   0.09503   0.90420
O          O       0.05688   0.08217   0.87150
O          O       0.96973   0.01085   0.56032
O          O       0.00872   0.93630   0.78695
C          C       0.03181   0.96065   0.85225
C          C       0.02914   0.98456   0.97207
O          O       0.05460   0.00053   0.52372
C          C       0.14397   0.94046   0.71375
C          C       0.14269   0.11198   0.59027
C          C       0.85777   0.16620   0.82205
C          C       0.85029   0.86330   0.88769
C          C       0.83881   0.17319   0.78614
C          C       0.82318   0.21294   0.86963
C          C       0.82632   0.24641   0.99026
C          C       0.84514   0.23951   0.52652
C          C       0.86070   0.19967   0.94310
C          C       0.82586   0.88262   0.94922
C          C       0.80808   0.85755   0.93742
C          C       0.81426   0.81254   0.86225
C          C       0.83834   0.79278   0.79801
C          C       0.85628   0.81805   0.81110
C          C       0.13371   0.91024   0.70032
C          C       0.14954   0.89387   0.71884
C          C       0.17587   0.90726   0.75041
C          C       0.18620   0.93718   0.76321
C          C       0.17036   0.95391   0.74584
C          C       0.16844   0.09540   0.54163
C          C       0.18110   0.10447   0.99719
C          C       0.16841   0.13096   0.50280
C          C       0.14302   0.14868   0.55459
C          C       0.13016   0.13894   0.59706
C          C       0.81008   0.28983   0.57932
C          C       0.78070   0.28198   0.58458
C          C       0.77401   0.30373   0.69700
C          C       0.79630   0.78708   0.85829
C          C       0.76900   0.77736   0.80834
C          C       0.77113   0.74469   0.68224
C          C       0.18235   0.14185   0.95809
C          C       0.16803   0.12326   0.85615
C          C       0.16531   0.07335   0.75511
C          C       0.19263   0.89105   0.77477
C          C       0.19269   0.92671   0.90809
C          C       0.20770   0.96734   0.97215
N          N       0.76884   0.32090   0.78546
N          N       0.77283   0.71892   0.58312
N          N       0.21963   0.99891   0.52124
N          N       0.16301   0.03423   0.67633
H          H       0.21477   0.08847   0.72815
H          H       0.23948   0.11422   0.67958
H          H       0.18032   0.21921   0.86733
H          H       0.15514   0.19176   0.91056
H          H       0.11565   0.05892   0.82399
H          H       0.08583   0.18814   0.93617
H          H       0.06141   0.16617   0.99648
H          H       0.11339   0.16712   0.79137
H          H       0.14035   0.02810   0.97395
H          H       0.11490   0.00523   0.52733
H          H       0.02546   0.02328   0.77579
H          H       0.99705   0.05637   0.87012
H          H       0.02634   0.11566   0.99505
H          H       0.02272   0.11616   0.90432
H          H       0.17861   0.07514   0.53731
H          H       0.20088   0.09114   0.95926
H          H       0.13306   0.16967   0.56105
H          H       0.11016   0.15146   0.63251
H          H       0.18361   0.17953   0.53253
H          H       0.20302   0.12839   0.92962
H          H       0.14767   0.13779   0.88632
H          H       0.29078   0.86849   0.63371
H          H       0.26744   0.90313   0.60994
H          H       0.20839   0.79946   0.90990
H          H       0.23169   0.76478   0.93395
H          H       0.72358   0.41466   0.99656
H          H       0.74749   0.38928   0.54455
H          H       0.68051   0.31040   0.94701
H          H       0.65707   0.33414   0.89333
H          H       0.72165   0.66037   0.95479
H          H       0.74352   0.68449   0.89807
H          H       0.67112   0.74961   0.97111
H          H       0.65009   0.72903   0.53885
H          H       0.21936   0.22933   0.67400
H          H       0.19352   0.20240   0.71810
H          H       0.26556   0.17501   0.76772
H          H       0.29118   0.20122   0.72169
H          H       0.46070   0.44701   0.84666
H          H       0.45876   0.40527   0.82586
H          H       0.50322   0.40469   0.77912
H          H       0.50278   0.42825   0.91500
H          H       0.48820   0.48684   0.70787
H          H       0.48387   0.51007   0.67225
H          H       0.47960   0.58940   0.90852
H          H       0.46801   0.55349   0.90133
H          H       0.57083   0.41290   0.91361
H          H       0.59334   0.37687   0.93545
H          H       0.62098   0.38296   0.54846
H          H       0.65398   0.51230   0.87123
H          H       0.63158   0.54865   0.85288
H          H       0.59229   0.68885   0.51864
H          H       0.57242   0.65359   0.54861
H          H       0.61700   0.68176   0.89440
H          H       0.65016   0.55163   0.55994
H          H       0.62958   0.51555   0.58432
H          H       0.46718   0.52363   0.99958
H          H       0.43893   0.58669   0.59115
H          H       0.39963   0.63534   0.70788
H          H       0.34843   0.62002   0.85495
H          H       0.37674   0.55898   0.77019
H          H       0.40388   0.44549   0.71511
H          H       0.43543   0.50698   0.83068
H          H       0.36977   0.39832   0.56876
H          H       0.35153   0.40963   0.87724
H          H       0.38591   0.46537   0.97655
H          H       0.54060   0.50257   0.77509
H          H       0.51348   0.53357   0.88068
H          H       0.54390   0.58822   0.51216
H          H       0.53715   0.60343   0.95657
H          H       0.54587   0.49376   0.93739
H          H       0.54527   0.43871   0.86046
H          H       0.53488   0.47545   0.55353
H          H       0.53300   0.52967   0.62628
H          H       0.31951   0.62688   0.75649
H          H       0.29089   0.68470   0.82438
H          H       0.35644   0.77593   0.99815
H          H       0.38522   0.71759   0.92727
H          H       0.34283   0.33042   0.73702
H          H       0.30350   0.28298   0.65248
H          H       0.28355   0.35160   0.98753
H          H       0.32212   0.39992   0.57334
H          H       0.61853   0.38277   0.67305
H          H       0.63953   0.35073   0.70831
H          H       0.70880   0.42930   0.82749
H          H       0.68867   0.45940   0.78610
H          H       0.68485   0.60494   0.64275
H          H       0.70478   0.63715   0.60459
H          H       0.63383   0.71565   0.73538
H          H       0.61320   0.68182   0.76868
H          H       0.31714   0.79679   0.98826
H          H       0.29837   0.75003   0.86225
H          H       0.26907   0.75811   0.98933
H          H       0.25366   0.29997   0.83574
H          H       0.25435   0.29020   0.72513
H          H       0.29440   0.23063   0.67144
H          H       0.68031   0.73531   0.71947
H          H       0.70459   0.69089   0.62589
H          H       0.64920   0.68689   0.55427
H          H       0.68681   0.33251   0.72133
H          H       0.70931   0.37831   0.81493
H          H       0.65349   0.37853   0.88510
H          H       0.77452   0.36991   0.72242
H          H       0.74730   0.39775   0.68645
H          H       0.71848   0.26184   0.87247
H          H       0.74574   0.23412   0.90844
H          H       0.97550   0.09630   0.85617
H          H       0.96231   0.04077   0.75859
H          H       0.98147   0.07810   0.69610
H          H       0.94783   0.07108   0.70830
H          H       0.88271   0.12518   0.62619
H          H       0.86988   0.11275   0.81997
H          H       0.89665   0.04329   0.67544
H          H       0.83590   0.14761   0.69341
H          H       0.80868   0.21787   0.84057
H          H       0.84779   0.26500   0.61933
H          H       0.87533   0.19527   0.97301
H          H       0.81889   0.31614   0.66765
H          H       0.81192   0.30369   0.55489
H          H       0.77730   0.24494   0.51484
H          H       0.24430   0.90337   0.88384
H          H       0.26265   0.87295   0.92661
H          H       0.18455   0.86881   0.51144
H          H       0.16625   0.90186   0.97530
H          H       0.05341   0.91377   0.89039
H          H       0.07705   0.88419   0.92775
H          H       0.10858   0.89507   0.54185
H          H       0.14215   0.02694   0.84671
H          H       0.01958   0.96199   0.96401
H          H       0.01557   0.01434   0.52994
H          H       0.11330   0.90016   0.67820
H          H       0.14117   0.87129   0.71031
H          H       0.20656   0.94756   0.78675
H          H       0.17894   0.97647   0.75455
H          H       0.18477   0.85840   0.72706
H          H       0.21306   0.88322   0.73856
H          H       0.17207   0.93867   0.94449
H          H       0.72710   0.82109   0.96487
H          H       0.70244   0.79732   0.51890
H          H       0.74558   0.66909   0.74825
H          H       0.77098   0.69392   0.69841
H          H       0.96179   0.94019   0.68366
H          H       0.97314   0.89838   0.65439
H          H       0.98408   0.99393   0.89914
H          H       0.00066   0.97489   0.78012
H          H       0.93448   0.99690   0.79244
H          H       0.90901   0.06785   0.94328
H          H       0.94525   0.90546   0.50078
H          H       0.97752   0.95704   0.55302
H          H       0.90095   0.87523   0.94569
H          H       0.84354   0.91367   0.87689
H          H       0.87572   0.96160   0.91719
H          H       0.03772   0.98559   0.86357
H          H       0.04854   0.93582   0.80312
H          H       0.82103   0.91767   0.50977
H          H       0.78980   0.87362   0.98924
H          H       0.84349   0.75812   0.73967
H          H       0.87496   0.80250   0.76227
H          H       0.80585   0.75446   0.80601
H          H       0.79372   0.80798   0.94978
H          H       0.76043   0.80943   0.85461
