data_crystal

_cell_length_a    53.50000
_cell_length_b    40.70000
_cell_length_c    16.60000
_cell_angle_alpha 135.60000
_cell_angle_beta  91.20000
_cell_angle_gamma 88.90000

_space_group_name_Hall 'P 1'
_space_group_name_H-M_alt  'P 1'

loop_
_symmetry_equiv_pos_as_xyz
'x,y,z'

loop_
_atom_site_label
_atom_site_type_symbol
_atom_site_fract_x
_atom_site_fract_y
_atom_site_fract_z
C          C       0.59850   0.41763   0.40466
C          C       0.59656   0.46425   0.45667
C          C       0.57773   0.47553   0.41833
C          C       0.56078   0.44095   0.33153
C          C       0.56334   0.39475   0.27922
C          C       0.58194   0.38318   0.31584
C          C       0.61716   0.40587   0.44110
C          C       0.63425   0.43977   0.02832
C          C       0.63243   0.48576   0.07860
C          C       0.61365   0.49812   0.04469
C          C       0.57502   0.52366   0.46930
C          C       0.59189   0.54134   0.44317
C          C       0.58883   0.58787   0.49552
C          C       0.56864   0.61528   0.06920
C          C       0.55219   0.59756   0.09498
C          C       0.55585   0.55251   0.04910
C          C       0.60618   0.60657   0.47468
C          C       0.62686   0.57976   0.40325
C          C       0.62951   0.53347   0.35067
C          C       0.61213   0.51420   0.36857
C          C       0.39702   0.56813   0.38472
C          C       0.40256   0.54700   0.42344
C          C       0.42057   0.51002   0.36380
C          C       0.43287   0.49548   0.26766
C          C       0.42760   0.51804   0.23425
C          C       0.40957   0.55339   0.29031
C          C       0.37923   0.60432   0.44173
C          C       0.36678   0.62056   0.03829
C          C       0.37247   0.60023   0.07787
C          C       0.39024   0.56413   0.02183
C          C       0.42743   0.48734   0.40236
C          C       0.41086   0.45559   0.38484
C          C       0.41961   0.42873   0.40471
C          C       0.44458   0.43189   0.43594
C          C       0.46054   0.46352   0.45468
C          C       0.45198   0.49289   0.44403
C          C       0.40345   0.39817   0.39075
C          C       0.37843   0.39370   0.35745
C          C       0.37006   0.41853   0.33236
C          C       0.38609   0.44866   0.34453
O          O       0.45202   0.46149   0.20921
O          O       0.49589   0.59775   0.19688
C          C       0.50570   0.56884   0.20877
C          C       0.53404   0.56574   0.19767
O          O       0.54059   0.53472   0.07895
O          O       0.46911   0.52432   0.46576
O          O       0.48322   0.39154   0.16488
C          C       0.50465   0.41523   0.17879
C          C       0.51708   0.44115   0.29396
O          O       0.54231   0.45267   0.29387
C          C       0.65434   0.42667   0.06437
C          C       0.64596   0.60002   0.38484
C          C       0.34752   0.65812   0.09566
C          C       0.36104   0.36392   0.35156
C          C       0.32444   0.65395   0.12650
C          C       0.30551   0.68733   0.17120
C          C       0.30944   0.72586   0.18784
C          C       0.33263   0.73041   0.15852
C          C       0.35154   0.69708   0.11375
C          C       0.34342   0.33519   0.26164
C          C       0.32686   0.30790   0.25811
C          C       0.32791   0.30811   0.34284
C          C       0.34519   0.33743   0.43387
C          C       0.36168   0.36485   0.43783
C          C       0.64945   0.39534   0.07258
C          C       0.66857   0.38112   0.10082
C          C       0.69284   0.39899   0.12480
C          C       0.69780   0.43027   0.11679
C          C       0.67870   0.44431   0.08773
C          C       0.67145   0.58871   0.37618
C          C       0.68933   0.60642   0.35519
C          C       0.68221   0.63568   0.34191
C          C       0.65694   0.64897   0.35627
C          C       0.63896   0.63069   0.37547
C          C       0.28814   0.75721   0.22123
C          C       0.28947   0.80431   0.29524
C          C       0.31195   0.82976   0.36138
C          C       0.26791   0.83112   0.30761
C          C       0.30956   0.27993   0.33832
C          C       0.31513   0.25244   0.35467
C          C       0.34061   0.24806   0.37732
C          C       0.29533   0.22523   0.34830
C          C       0.70190   0.65299   0.31786
C          C       0.69949   0.65750   0.24497
C          C       0.67636   0.64648   0.18368
C          C       0.72098   0.67238   0.22190
C          C       0.71372   0.38228   0.14822
C          C       0.71234   0.37630   0.21813
C          C       0.69015   0.38976   0.28425
C          C       0.73326   0.35404   0.22554
C          C       0.27189   0.86553   0.30881
C          C       0.25167   0.88778   0.30875
C          C       0.22699   0.87616   0.30770
C          C       0.22305   0.84371   0.31321
C          C       0.24329   0.82130   0.31279
C          C       0.71723   0.70383   0.21239
C          C       0.73725   0.71754   0.18902
C          C       0.76138   0.69957   0.17306
C          C       0.76509   0.66745   0.18026
C          C       0.74513   0.65416   0.20504
C          C       0.72819   0.32090   0.22778
C          C       0.74765   0.29616   0.22304
C          C       0.77259   0.30432   0.21677
C          C       0.77776   0.33947   0.22171
C          C       0.75829   0.36404   0.22578
C          C       0.29724   0.21676   0.41686
C          C       0.27872   0.19179   0.41293
C          C       0.25773   0.17458   0.34018
C          C       0.25609   0.18198   0.26954
C          C       0.27466   0.20677   0.27310
N          N       0.32994   0.85018   0.41414
N          N       0.36092   0.24475   0.39623
N          N       0.67222   0.40025   0.33594
N          N       0.65774   0.63801   0.13559
C          C       0.20537   0.89644   0.29731
C          C       0.20628   0.90187   0.22624
C          C       0.18327   0.90936   0.36342
C          C       0.23746   0.14906   0.33705
C          C       0.23028   0.16161   0.43331
C          C       0.22548   0.11013   0.22776
C          C       0.79312   0.27434   0.19705
C          C       0.79054   0.22721   0.11517
C          C       0.81585   0.29678   0.26442
C          C       0.78262   0.71362   0.14721
C          C       0.78681   0.75950   0.21255
C          C       0.79755   0.67669   0.04767
N          N       0.16540   0.91944   0.41508
N          N       0.21593   0.07892   0.14052
N          N       0.83405   0.31481   0.31827
N          N       0.80946   0.64703   0.46793
C          C       0.09459   0.93899   0.47513
C          C       0.09370   0.98540   0.02539
C          C       0.07859   0.99543   0.47378
C          C       0.06332   0.96014   0.37812
C          C       0.06443   0.91439   0.33003
C          C       0.07985   0.90394   0.37814
C          C       0.11107   0.92767   0.01921
C          C       0.12706   0.96182   0.11210
C          C       0.12529   0.00820   0.16509
C          C       0.10862   0.02009   0.12350
O          O       0.04902   0.97031   0.32584
C          C       0.02419   0.95130   0.28757
C          C       0.02187   0.92100   0.15958
C          C       0.14687   0.94824   0.14765
C          C       0.17145   0.96445   0.16720
C          C       0.19051   0.94968   0.19446
C          C       0.18534   0.91896   0.20408
C          C       0.16084   0.90226   0.18311
C          C       0.14174   0.91714   0.15630
C          C       0.89494   0.02997   0.24582
C          C       0.89789   0.00280   0.26944
C          C       0.91490   0.96429   0.20325
C          C       0.92921   0.95471   0.11816
C          C       0.92617   0.98228   0.09705
C          C       0.90904   0.01935   0.15948
C          C       0.87817   0.06796   0.30984
C          C       0.86439   0.08016   0.39909
C          C       0.86763   0.05381   0.42386
C          C       0.88419   0.01567   0.36023
O          O       0.94609   0.91674   0.05333
C          C       0.84633   0.11991   0.46451
C          C       0.82246   0.11554   0.48968
C          C       0.80475   0.15156   0.04303
C          C       0.81067   0.19282   0.07376
C          C       0.83463   0.19751   0.05005
C          C       0.85235   0.16157   0.49686
C          C       0.07938   0.04485   0.01455
C          C       0.10103   0.05988   0.00001
C          C       0.10129   0.10511   0.04350
C          C       0.08051   0.13476   0.10158
C          C       0.05948   0.12021   0.11742
C          C       0.05851   0.07504   0.07345
C          C       0.12247   0.12051   0.02979
C          C       0.14396   0.09217   0.47669
C          C       0.14399   0.04800   0.43680
C          C       0.12263   0.03139   0.44506
C          C       0.99622   0.06401   0.15398
C          C       0.01797   0.09063   0.16242
O          O       0.03746   0.05839   0.08576
C          C       0.16623   0.10855   0.46187
C          C       0.19028   0.10372   0.48806
C          C       0.21119   0.12066   0.47775
C          C       0.20840   0.14143   0.43802
C          C       0.18447   0.14558   0.40985
C          C       0.16354   0.12944   0.42206
C          C       0.92012   0.93380   0.22983
C          C       0.90253   0.90209   0.20643
C          C       0.90817   0.87879   0.23938
C          C       0.93176   0.88431   0.28610
C          C       0.94916   0.91479   0.30623
C          C       0.94305   0.94103   0.28367
C          C       0.88990   0.85149   0.22874
C          C       0.86598   0.84644   0.18432
C          C       0.86113   0.86696   0.14450
C          C       0.87913   0.89434   0.15508
O          O       0.95862   0.97834   0.32757
C          C       0.84571   0.82203   0.18511
C          C       0.82117   0.84007   0.21372
C          C       0.80222   0.81871   0.21973
C          C       0.80722   0.77872   0.19686
C          C       0.83179   0.76092   0.16983
C          C       0.85076   0.78204   0.16276
O          O       0.99778   0.89296   0.11718
O          O       0.98320   0.02473   0.04415
C          C       0.97225   0.04816   0.01765
C          C       0.95028   0.02024   0.43513
C          C       0.98894   0.88405   0.02201
C          C       0.97158   0.92383   0.06228
C          C       0.44415   0.41136   0.13907
C          C       0.46671   0.37824   0.08068
C          C       0.46971   0.58888   0.17637
C          C       0.46356   0.57082   0.05996
H          H       0.97806   0.85086   0.46422
H          H       0.00434   0.87824   0.46864
H          H       0.97440   0.92988   0.00773
H          H       0.97665   0.95663   0.15263
H          H       0.43061   0.40070   0.07247
H          H       0.43521   0.40700   0.19040
H          H       0.47551   0.37899   0.02169
H          H       0.45988   0.34178   0.02519
H          H       0.46072   0.62393   0.24432
H          H       0.46096   0.56570   0.18139
H          H       0.47521   0.59067   0.05181
H          H       0.44381   0.57906   0.05863
H          H       0.98621   0.05384   0.47360
H          H       0.96512   0.08666   0.09444
H          H       0.94165   0.04325   0.41912
H          H       0.93609   0.01977   0.47664
H          H       0.10802   0.05632   0.16567
H          H       0.55097   0.36500   0.20873
H          H       0.58347   0.34452   0.27400
H          H       0.61884   0.36719   0.39875
H          H       0.64550   0.50970   0.14460
H          H       0.61283   0.53153   0.08697
H          H       0.56573   0.64786   0.10739
H          H       0.53646   0.61600   0.15011
H          H       0.60412   0.63995   0.01752
H          H       0.64514   0.50918   0.29483
H          H       0.61501   0.47551   0.32490
H          H       0.43776   0.50518   0.16361
H          H       0.40570   0.56700   0.26056
H          H       0.37477   0.61676   0.40945
H          H       0.36331   0.61002   0.15287
H          H       0.39418   0.54708   0.05568
H          H       0.45173   0.40749   0.44661
H          H       0.47982   0.46271   0.47758
H          H       0.41036   0.37474   0.40463
H          H       0.35087   0.41276   0.30549
H          H       0.37873   0.46428   0.32376
H          H       0.49858   0.52958   0.14050
H          H       0.50080   0.58131   0.29430
H          H       0.54161   0.54772   0.22767
H          H       0.54210   0.59884   0.25511
H          H       0.50016   0.43922   0.17761
H          H       0.51816   0.38653   0.10877
H          H       0.51568   0.41706   0.31209
H          H       0.50642   0.47146   0.36203
H          H       0.32075   0.62119   0.11148
H          H       0.28758   0.68003   0.19076
H          H       0.33583   0.75604   0.16576
H          H       0.36921   0.69861   0.09113
H          H       0.34265   0.33070   0.19307
H          H       0.31335   0.28343   0.18813
H          H       0.34563   0.33713   0.00274
H          H       0.37461   0.38486   0.00937
H          H       0.63085   0.37882   0.05598
H          H       0.66447   0.35256   0.10086
H          H       0.71654   0.44074   0.13166
H          H       0.68316   0.46489   0.07890
H          H       0.67762   0.56397   0.38713
H          H       0.70880   0.59427   0.34804
H          H       0.65100   0.67107   0.35333
H          H       0.61955   0.63751   0.38148
H          H       0.27055   0.73712   0.17748
H          H       0.29052   0.27883   0.31773
H          H       0.71992   0.65745   0.35824
H          H       0.73094   0.37091   0.10279
H          H       0.29069   0.87141   0.30575
H          H       0.25532   0.91115   0.30830
H          H       0.20424   0.83193   0.31398
H          H       0.23972   0.79321   0.31496
H          H       0.69876   0.71522   0.22319
H          H       0.73386   0.73891   0.18121
H          H       0.78353   0.65020   0.16700
H          H       0.74847   0.62619   0.20839
H          H       0.70908   0.31019   0.22864
H          H       0.74324   0.26729   0.22176
H          H       0.79687   0.34392   0.21760
H          H       0.76279   0.38771   0.22725
H          H       0.31313   0.22688   0.47362
H          H       0.28103   0.18269   0.46534
H          H       0.24023   0.16624   0.21183
H          H       0.27293   0.20811   0.21521
H          H       0.22343   0.89072   0.18063
H          H       0.24008   0.18643   0.01341
H          H       0.77269   0.20960   0.07086
H          H       0.77394   0.78246   0.28134
H          H       0.05400   0.88361   0.25209
H          H       0.08066   0.86544   0.33767
H          H       0.11254   0.88891   0.47652
H          H       0.13722   0.03240   0.23732
H          H       0.01027   0.97773   0.33362
H          H       0.01871   0.92810   0.30519
H          H       0.03736   0.89205   0.11408
H          H       0.02422   0.94189   0.14751
H          H       0.17604   0.98472   0.15750
H          H       0.20940   0.95928   0.20705
H          H       0.15656   0.87401   0.18402
H          H       0.12298   0.90135   0.14100
H          H       0.90699   0.03735   0.14077
H          H       0.87560   0.08503   0.28875
H          H       0.85743   0.06035   0.49311
H          H       0.88618   0.99386   0.38262
H          H       0.81719   0.08079   0.46363
H          H       0.78619   0.14420   0.05802
H          H       0.83937   0.22536   0.06789
H          H       0.87066   0.16329   0.47882
H          H       0.08059   0.16686   0.13549
H          H       0.04416   0.14208   0.16387
H          H       0.12248   0.15239   0.06258
H          H       0.16046   0.02306   0.39652
H          H       0.12338   0.99362   0.40875
H          H       0.02533   0.11404   0.25182
H          H       0.01075   0.10712   0.14194
H          H       0.19275   0.08497   0.01827
H          H       0.22957   0.11454   0.49941
H          H       0.18204   0.15933   0.37983
H          H       0.14524   0.13031   0.39950
H          H       0.93643   0.86363   0.31028
H          H       0.96703   0.91789   0.34566
H          H       0.89399   0.83331   0.25973
H          H       0.84318   0.85953   0.10577
H          H       0.87440   0.90751   0.12488
H          H       0.81675   0.86884   0.23424
H          H       0.78356   0.83097   0.24289
H          H       0.83655   0.72879   0.15677
H          H       0.86942   0.76446   0.13988
H          H       0.98161   0.08491   0.22190
H          H       0.00323   0.03928   0.16894
H          H       0.93715   0.96943   0.03235
C          C       0.59850   0.41763   0.90466
C          C       0.59656   0.46425   0.95666
C          C       0.57773   0.47553   0.91833
C          C       0.56078   0.44095   0.83153
C          C       0.56334   0.39475   0.77922
C          C       0.58194   0.38318   0.81584
C          C       0.61716   0.40587   0.94110
C          C       0.63425   0.43977   0.52833
C          C       0.63243   0.48576   0.57860
C          C       0.61365   0.49812   0.54469
C          C       0.57502   0.52366   0.96930
C          C       0.59189   0.54134   0.94317
C          C       0.58883   0.58787   0.99552
C          C       0.56864   0.61528   0.56920
C          C       0.55219   0.59756   0.59498
C          C       0.55585   0.55251   0.54910
C          C       0.60618   0.60657   0.97468
C          C       0.62686   0.57976   0.90325
C          C       0.62951   0.53347   0.85067
C          C       0.61213   0.51420   0.86857
C          C       0.39702   0.56813   0.88473
C          C       0.40256   0.54700   0.92344
C          C       0.42057   0.51002   0.86381
C          C       0.43287   0.49548   0.76766
C          C       0.42760   0.51804   0.73425
C          C       0.40957   0.55339   0.79031
C          C       0.37923   0.60432   0.94173
C          C       0.36678   0.62056   0.53829
C          C       0.37247   0.60023   0.57788
C          C       0.39024   0.56413   0.52182
C          C       0.42743   0.48734   0.90236
C          C       0.41086   0.45559   0.88483
C          C       0.41961   0.42873   0.90471
C          C       0.44458   0.43189   0.93594
C          C       0.46054   0.46352   0.95468
C          C       0.45198   0.49289   0.94403
C          C       0.40345   0.39817   0.89075
C          C       0.37843   0.39370   0.85745
C          C       0.37006   0.41853   0.83236
C          C       0.38609   0.44866   0.84453
O          O       0.45202   0.46149   0.70921
O          O       0.49589   0.59775   0.69688
C          C       0.50570   0.56884   0.70877
C          C       0.53404   0.56574   0.69767
O          O       0.54059   0.53472   0.57895
O          O       0.46911   0.52432   0.96576
O          O       0.48322   0.39154   0.66488
C          C       0.50465   0.41523   0.67879
C          C       0.51708   0.44115   0.79396
O          O       0.54231   0.45267   0.79388
C          C       0.65434   0.42667   0.56437
C          C       0.64596   0.60002   0.88483
C          C       0.34752   0.65812   0.59566
C          C       0.36104   0.36392   0.85156
C          C       0.32444   0.65395   0.62650
C          C       0.30551   0.68733   0.67120
C          C       0.30944   0.72586   0.68783
C          C       0.33263   0.73041   0.65853
C          C       0.35154   0.69708   0.61375
C          C       0.34342   0.33519   0.76164
C          C       0.32686   0.30790   0.75811
C          C       0.32791   0.30811   0.84284
C          C       0.34519   0.33743   0.93387
C          C       0.36168   0.36485   0.93783
C          C       0.64945   0.39534   0.57259
C          C       0.66857   0.38112   0.60082
C          C       0.69284   0.39899   0.62480
C          C       0.69780   0.43027   0.61679
C          C       0.67870   0.44431   0.58773
C          C       0.67145   0.58871   0.87619
C          C       0.68933   0.60642   0.85519
C          C       0.68221   0.63568   0.84191
C          C       0.65694   0.64897   0.85627
C          C       0.63896   0.63069   0.87547
C          C       0.28814   0.75721   0.72123
C          C       0.28947   0.80431   0.79524
C          C       0.31195   0.82976   0.86138
C          C       0.26791   0.83112   0.80761
C          C       0.30956   0.27993   0.83832
C          C       0.31513   0.25244   0.85467
C          C       0.34061   0.24806   0.87732
C          C       0.29533   0.22523   0.84830
C          C       0.70190   0.65299   0.81786
C          C       0.69949   0.65750   0.74497
C          C       0.67636   0.64648   0.68368
C          C       0.72098   0.67238   0.72190
C          C       0.71372   0.38228   0.64822
C          C       0.71234   0.37630   0.71813
C          C       0.69015   0.38976   0.78425
C          C       0.73326   0.35404   0.72555
C          C       0.27189   0.86553   0.80881
C          C       0.25167   0.88778   0.80875
C          C       0.22699   0.87616   0.80770
C          C       0.22305   0.84371   0.81321
C          C       0.24329   0.82130   0.81279
C          C       0.71723   0.70383   0.71239
C          C       0.73725   0.71754   0.68902
C          C       0.76138   0.69957   0.67306
C          C       0.76509   0.66745   0.68026
C          C       0.74513   0.65416   0.70504
C          C       0.72819   0.32090   0.72779
C          C       0.74765   0.29616   0.72304
C          C       0.77259   0.30432   0.71677
C          C       0.77776   0.33947   0.72172
C          C       0.75829   0.36404   0.72578
C          C       0.29724   0.21676   0.91686
C          C       0.27872   0.19179   0.91293
C          C       0.25773   0.17458   0.84018
C          C       0.25609   0.18198   0.76954
C          C       0.27466   0.20677   0.77309
N          N       0.32994   0.85018   0.91414
N          N       0.36092   0.24475   0.89623
N          N       0.67222   0.40025   0.83595
N          N       0.65774   0.63801   0.63559
C          C       0.20537   0.89644   0.79732
C          C       0.20628   0.90187   0.72624
C          C       0.18327   0.90936   0.86342
C          C       0.23746   0.14906   0.83705
C          C       0.23028   0.16161   0.93331
C          C       0.22548   0.11013   0.72776
C          C       0.79312   0.27434   0.69705
C          C       0.79054   0.22721   0.61517
C          C       0.81585   0.29678   0.76442
C          C       0.78262   0.71362   0.64721
C          C       0.78681   0.75950   0.71254
C          C       0.79755   0.67669   0.54767
N          N       0.16540   0.91944   0.91508
N          N       0.21593   0.07892   0.64052
N          N       0.83405   0.31481   0.81827
N          N       0.80946   0.64703   0.96793
C          C       0.09459   0.93899   0.97513
C          C       0.09370   0.98540   0.52539
C          C       0.07859   0.99543   0.97378
C          C       0.06332   0.96014   0.87812
C          C       0.06443   0.91439   0.83003
C          C       0.07985   0.90394   0.87814
C          C       0.11107   0.92767   0.51921
C          C       0.12706   0.96182   0.61210
C          C       0.12529   0.00820   0.66509
C          C       0.10862   0.02009   0.62350
O          O       0.04902   0.97031   0.82584
C          C       0.02419   0.95130   0.78757
C          C       0.02187   0.92100   0.65958
C          C       0.14687   0.94824   0.64765
C          C       0.17145   0.96445   0.66720
C          C       0.19051   0.94968   0.69446
C          C       0.18534   0.91896   0.70408
C          C       0.16084   0.90226   0.68311
C          C       0.14174   0.91714   0.65631
C          C       0.89494   0.02997   0.74582
C          C       0.89789   0.00280   0.76944
C          C       0.91490   0.96429   0.70325
C          C       0.92921   0.95471   0.61816
C          C       0.92617   0.98228   0.59705
C          C       0.90904   0.01935   0.65948
C          C       0.87817   0.06796   0.80984
C          C       0.86439   0.08016   0.89909
C          C       0.86763   0.05381   0.92387
C          C       0.88419   0.01567   0.86023
O          O       0.94609   0.91674   0.55333
C          C       0.84633   0.11991   0.96451
C          C       0.82246   0.11554   0.98968
C          C       0.80475   0.15156   0.54303
C          C       0.81067   0.19282   0.57376
C          C       0.83463   0.19751   0.55005
C          C       0.85235   0.16157   0.99686
C          C       0.07938   0.04485   0.51455
C          C       0.10103   0.05988   0.50001
C          C       0.10129   0.10511   0.54350
C          C       0.08051   0.13476   0.60158
C          C       0.05948   0.12021   0.61742
C          C       0.05851   0.07504   0.57345
C          C       0.12247   0.12051   0.52979
C          C       0.14396   0.09217   0.97669
C          C       0.14399   0.04800   0.93680
C          C       0.12263   0.03139   0.94505
C          C       0.99622   0.06401   0.65398
C          C       0.01797   0.09063   0.66242
O          O       0.03746   0.05839   0.58576
C          C       0.16623   0.10855   0.96188
C          C       0.19028   0.10372   0.98806
C          C       0.21119   0.12066   0.97775
C          C       0.20840   0.14143   0.93802
C          C       0.18447   0.14558   0.90985
C          C       0.16354   0.12944   0.92206
C          C       0.92012   0.93380   0.72983
C          C       0.90253   0.90209   0.70643
C          C       0.90817   0.87879   0.73938
C          C       0.93176   0.88431   0.78610
C          C       0.94916   0.91479   0.80623
C          C       0.94305   0.94103   0.78367
C          C       0.88990   0.85149   0.72874
C          C       0.86598   0.84644   0.68432
C          C       0.86113   0.86696   0.64450
C          C       0.87913   0.89434   0.65508
O          O       0.95862   0.97834   0.82757
C          C       0.84571   0.82203   0.68511
C          C       0.82117   0.84007   0.71372
C          C       0.80222   0.81871   0.71973
C          C       0.80722   0.77872   0.69686
C          C       0.83179   0.76092   0.66983
C          C       0.85076   0.78204   0.66276
O          O       0.99778   0.89296   0.61718
O          O       0.98320   0.02473   0.54415
C          C       0.97225   0.04816   0.51765
C          C       0.95028   0.02024   0.93513
C          C       0.98894   0.88405   0.52201
C          C       0.97158   0.92383   0.56229
C          C       0.44415   0.41136   0.63907
C          C       0.46671   0.37824   0.58068
C          C       0.46971   0.58888   0.67637
C          C       0.46356   0.57082   0.55995
H          H       0.97806   0.85086   0.96422
H          H       0.00434   0.87824   0.96864
H          H       0.97440   0.92988   0.50773
H          H       0.97665   0.95663   0.65263
H          H       0.43061   0.40070   0.57247
H          H       0.43521   0.40700   0.69040
H          H       0.47551   0.37899   0.52169
H          H       0.45988   0.34178   0.52519
H          H       0.46072   0.62393   0.74432
H          H       0.46096   0.56570   0.68139
H          H       0.47521   0.59067   0.55181
H          H       0.44381   0.57906   0.55863
H          H       0.98621   0.05384   0.97360
H          H       0.96512   0.08666   0.59444
H          H       0.94165   0.04325   0.91912
H          H       0.93609   0.01977   0.97665
H          H       0.10802   0.05632   0.66567
H          H       0.55097   0.36500   0.70873
H          H       0.58347   0.34452   0.77400
H          H       0.61884   0.36719   0.89875
H          H       0.64550   0.50970   0.64460
H          H       0.61283   0.53153   0.58697
H          H       0.56573   0.64786   0.60739
H          H       0.53646   0.61600   0.65012
H          H       0.60412   0.63995   0.51753
H          H       0.64514   0.50918   0.79483
H          H       0.61501   0.47551   0.82491
H          H       0.43776   0.50518   0.66361
H          H       0.40570   0.56700   0.76056
H          H       0.37477   0.61676   0.90945
H          H       0.36331   0.61002   0.65287
H          H       0.39418   0.54708   0.55568
H          H       0.45173   0.40749   0.94661
H          H       0.47982   0.46271   0.97758
H          H       0.41036   0.37474   0.90463
H          H       0.35087   0.41276   0.80549
H          H       0.37873   0.46428   0.82376
H          H       0.49858   0.52958   0.64050
H          H       0.50080   0.58131   0.79431
H          H       0.54161   0.54772   0.72767
H          H       0.54210   0.59884   0.75511
H          H       0.50016   0.43922   0.67761
H          H       0.51816   0.38653   0.60877
H          H       0.51568   0.41706   0.81209
H          H       0.50642   0.47146   0.86203
H          H       0.32075   0.62119   0.61148
H          H       0.28758   0.68003   0.69076
H          H       0.33583   0.75604   0.66576
H          H       0.36921   0.69861   0.59114
H          H       0.34265   0.33070   0.69307
H          H       0.31335   0.28343   0.68813
H          H       0.34563   0.33713   0.50274
H          H       0.37461   0.38486   0.50937
H          H       0.63085   0.37882   0.55598
H          H       0.66447   0.35256   0.60086
H          H       0.71654   0.44074   0.63166
H          H       0.68316   0.46489   0.57890
H          H       0.67762   0.56397   0.88713
H          H       0.70880   0.59427   0.84805
H          H       0.65100   0.67107   0.85333
H          H       0.61955   0.63751   0.88148
H          H       0.27055   0.73712   0.67748
H          H       0.29052   0.27883   0.81773
H          H       0.71992   0.65745   0.85824
H          H       0.73094   0.37091   0.60280
H          H       0.29069   0.87141   0.80576
H          H       0.25532   0.91115   0.80830
H          H       0.20424   0.83193   0.81398
H          H       0.23972   0.79321   0.81497
H          H       0.69876   0.71522   0.72319
H          H       0.73386   0.73891   0.68121
H          H       0.78353   0.65020   0.66700
H          H       0.74847   0.62619   0.70839
H          H       0.70908   0.31019   0.72864
H          H       0.74324   0.26729   0.72176
H          H       0.79687   0.34392   0.71760
H          H       0.76279   0.38771   0.72725
H          H       0.31313   0.22688   0.97362
H          H       0.28103   0.18269   0.96534
H          H       0.24023   0.16624   0.71183
H          H       0.27293   0.20811   0.71521
H          H       0.22343   0.89072   0.68063
H          H       0.24008   0.18643   0.51341
H          H       0.77269   0.20960   0.57087
H          H       0.77394   0.78246   0.78134
H          H       0.05400   0.88361   0.75209
H          H       0.08066   0.86544   0.83767
H          H       0.11254   0.88891   0.97652
H          H       0.13722   0.03240   0.73732
H          H       0.01027   0.97773   0.83362
H          H       0.01871   0.92810   0.80519
H          H       0.03736   0.89205   0.61408
H          H       0.02422   0.94189   0.64751
H          H       0.17604   0.98472   0.65750
H          H       0.20940   0.95928   0.70705
H          H       0.15656   0.87401   0.68402
H          H       0.12298   0.90135   0.64100
H          H       0.90699   0.03735   0.64078
H          H       0.87560   0.08503   0.78875
H          H       0.85743   0.06035   0.99311
H          H       0.88618   0.99386   0.88262
H          H       0.81719   0.08079   0.96363
H          H       0.78619   0.14420   0.55802
H          H       0.83937   0.22536   0.56788
H          H       0.87066   0.16329   0.97882
H          H       0.08059   0.16686   0.63549
H          H       0.04416   0.14208   0.66387
H          H       0.12248   0.15239   0.56258
H          H       0.16046   0.02306   0.89652
H          H       0.12338   0.99362   0.90876
H          H       0.02533   0.11404   0.75182
H          H       0.01075   0.10712   0.64194
H          H       0.19275   0.08497   0.51828
H          H       0.22957   0.11454   0.99941
H          H       0.18204   0.15933   0.87983
H          H       0.14524   0.13031   0.89950
H          H       0.93643   0.86363   0.81028
H          H       0.96703   0.91789   0.84566
H          H       0.89399   0.83331   0.75973
H          H       0.84318   0.85953   0.60577
H          H       0.87440   0.90751   0.62488
H          H       0.81675   0.86884   0.73424
H          H       0.78356   0.83097   0.74289
H          H       0.83655   0.72879   0.65677
H          H       0.86942   0.76446   0.63988
H          H       0.98161   0.08491   0.72191
H          H       0.00323   0.03928   0.66894
H          H       0.93715   0.96943   0.53235
