data_crystal

_cell_length_a    36.95540
_cell_length_b    36.95540
_cell_length_c    7.81360
_cell_angle_alpha 90.00000
_cell_angle_beta  90.00000
_cell_angle_gamma 120.00000

_symmetry_space_group_name_Hall 'P 1'
_symmetry_space_group_name_H-M  'P 1'

loop_
_symmetry_equiv_pos_as_xyz
 'x,y,z'

loop_
_atom_site_label
_atom_site_type_symbol
_atom_site_fract_x
_atom_site_fract_y
_atom_site_fract_z
C          C       0.04496   0.02514   0.26409
C          C       0.97486   0.01982   0.26409
C          C       0.98018   0.95504   0.26409
N          N       0.17349   0.00010   0.37302
N          N       0.99990   0.17339   0.37302
N          N       0.82661   0.82651   0.37302
C          C       0.01910   0.04333   0.26633
C          C       0.95667   0.97577   0.26633
C          C       0.02423   0.98090   0.26633
N          N       0.49603   0.33306   0.12319
N          N       0.66694   0.16297   0.12319
N          N       0.83703   0.50397   0.12319
C          C       0.08945   0.04986   0.25263
C          C       0.95014   0.03959   0.25263
C          C       0.96041   0.91055   0.25263
C          C       0.13890   0.96564   0.31580
C          C       0.03436   0.17326   0.31580
C          C       0.82674   0.86110   0.31580
C          C       0.10920   0.08947   0.17030
C          C       0.91053   0.01973   0.17030
C          C       0.98027   0.89080   0.17030
C          C       0.13790   0.93064   0.38481
C          C       0.06936   0.20726   0.38481
C          C       0.79274   0.86210   0.38481
C          C       0.15282   0.11357   0.15643
C          C       0.88643   0.03925   0.15643
C          C       0.96075   0.84718   0.15643
N          N       0.17180   0.94344   0.48272
N          N       0.05656   0.22836   0.48272
N          N       0.77164   0.82820   0.48272
C          C       0.17782   0.09752   0.21500
C          C       0.90248   0.08030   0.21500
C          C       0.91970   0.82218   0.21500
C          C       0.19294   0.98537   0.47493
C          C       0.01463   0.20757   0.47493
C          C       0.79243   0.80706   0.47493
C          C       0.15987   0.05705   0.28850
C          C       0.94295   0.10282   0.28850
C          C       0.89718   0.84013   0.28850
C          C       0.47761   0.35515   0.17157
C          C       0.64485   0.12246   0.17157
C          C       0.87754   0.52239   0.17157
C          C       0.11616   0.03558   0.31712
C          C       0.96442   0.08058   0.31712
C          C       0.91942   0.88384   0.31712
C          C       0.50051   0.39526   0.10663
C          C       0.60474   0.10525   0.10663
C          C       0.89475   0.49949   0.10663
C          C       0.18683   0.04082   0.32810
C          C       0.95918   0.14601   0.32810
C          C       0.85399   0.81317   0.32810
N          N       0.53265   0.39775   0.01837
N          N       0.60225   0.13490   0.01837
N          N       0.86510   0.46735   0.01837
C          C       0.23041   0.06801   0.30879
C          C       0.93199   0.16240   0.30879
C          C       0.83760   0.76959   0.30879
C          C       0.52956   0.35997   0.02877
C          C       0.64003   0.16959   0.02877
C          C       0.83041   0.47044   0.02877
C          C       0.24700   0.10887   0.24470
C          C       0.89113   0.13813   0.24470
C          C       0.86187   0.75300   0.24470
H          H       0.03309   0.07502   0.26745
H          H       0.92498   0.95807   0.26745
H          H       0.04193   0.96691   0.26745
N          N       0.21976   0.12151   0.19821
N          N       0.87849   0.09825   0.19821
N          N       0.90175   0.78024   0.19821
H          H       0.09218   0.10136   0.11626
H          H       0.89864   0.99082   0.11626
H          H       0.00918   0.90782   0.11626
C          C       0.29030   0.13702   0.22948
C          C       0.86298   0.15328   0.22948
C          C       0.84672   0.70970   0.22948
H          H       0.16629   0.14244   0.10044
H          H       0.85756   0.02385   0.10044
H          H       0.97615   0.83371   0.10044
C          C       0.30652   0.17862   0.28736
C          C       0.82138   0.12790   0.28736
C          C       0.87210   0.69348   0.28736
H          H       0.10350   0.00863   0.38750
H          H       0.99137   0.09487   0.38750
H          H       0.90513   0.89650   0.38750
C          C       0.34964   0.20776   0.28322
C          C       0.79224   0.14188   0.28322
C          C       0.85812   0.65036   0.28322
H          H       0.25082   0.05811   0.33961
H          H       0.94189   0.19271   0.33961
H          H       0.80729   0.74918   0.33961
C          C       0.37744   0.19526   0.21750
C          C       0.80474   0.18218   0.21750
C          C       0.81782   0.62256   0.21750
H          H       0.28672   0.18776   0.33621
H          H       0.81224   0.09896   0.33621
H          H       0.90104   0.71328   0.33621
C          C       0.36129   0.15396   0.15672
C          C       0.84604   0.20733   0.15672
C          C       0.79267   0.63871   0.15672
H          H       0.38122   0.14499   0.10801
H          H       0.85501   0.23623   0.10801
H          H       0.76377   0.61878   0.10801
C          C       0.31814   0.12477   0.16113
C          C       0.87523   0.19337   0.16113
C          C       0.80663   0.68186   0.16113
H          H       0.41995   0.27374   0.10099
H          H       0.72626   0.14621   0.10099
H          H       0.85379   0.58005   0.10099
C          C       0.42089   0.22301   0.21588
C          C       0.77699   0.19788   0.21588
C          C       0.80212   0.57911   0.21588
H          H       0.56711   0.32946   0.19774
H          H       0.67054   0.23765   0.19774
H          H       0.76235   0.43289   0.19774
N          N       0.44644   0.21015   0.28192
N          N       0.78985   0.23629   0.28192
N          N       0.76371   0.55356   0.28192
H          H       0.56976   0.23033   0.45135
H          H       0.76967   0.33943   0.45135
H          H       0.66057   0.43024   0.45135
C          C       0.48840   0.23485   0.29248
C          C       0.76515   0.25355   0.29248
C          C       0.74645   0.51160   0.29248
H          H       0.49605   0.18842   0.41641
H          H       0.81158   0.30763   0.41641
H          H       0.69237   0.50395   0.41641
C          C       0.50831   0.27663   0.23153
C          C       0.72337   0.23168   0.23153
C          C       0.76832   0.49169   0.23153
H          H       0.63244   0.25830   0.33007
H          H       0.74170   0.37414   0.33007
H          H       0.62586   0.36756   0.33007
C          C       0.48258   0.29230   0.16634
C          C       0.70770   0.19028   0.16634
C          C       0.80972   0.51742   0.16634
H          H       0.32576   0.25017   0.02821
H          H       0.74983   0.07559   0.02821
H          H       0.92441   0.67424   0.02821
C          C       0.43907   0.26418   0.15382
C          C       0.73582   0.17489   0.15382
C          C       0.82511   0.56093   0.15382
H          H       0.32329   0.26969   0.32390
H          H       0.73031   0.05360   0.32390
H          H       0.94640   0.67671   0.32390
C          C       0.55241   0.29994   0.24468
C          C       0.70006   0.25247   0.24468
C          C       0.74753   0.44759   0.24468
H          H       0.36704   0.29902   0.45820
H          H       0.70098   0.06802   0.45820
H          H       0.93198   0.63296   0.45820
C          C       0.57696   0.28437   0.32078
C          C       0.71563   0.29259   0.32078
C          C       0.70741   0.42304   0.32078
H          H       0.34220   0.08238   0.41542
H          H       0.91762   0.25982   0.41542
H          H       0.74018   0.65780   0.41542
C          C       0.55472   0.24311   0.38739
C          C       0.75689   0.31161   0.38739
C          C       0.68839   0.44528   0.38739
H          H       0.30160   0.03351   0.48838
H          H       0.96649   0.26809   0.48838
H          H       0.73191   0.69840   0.48838
C          C       0.51121   0.21834   0.37008
C          C       0.78166   0.29287   0.37008
C          C       0.70713   0.48879   0.37008
H          H       0.34549   0.06363   0.12041
H          H       0.93637   0.28186   0.12041
H          H       0.71814   0.65451   0.12041
C          C       0.62159   0.30882   0.32820
C          C       0.69118   0.31277   0.32820
C          C       0.68723   0.37841   0.32820
H          H       0.11704   0.96462   0.23213
H          H       0.03538   0.15242   0.23213
H          H       0.84758   0.88296   0.23213
C          C       0.64689   0.29000   0.32966
C          C       0.71000   0.35689   0.32966
C          C       0.64311   0.35311   0.32966
H          H       0.11542   0.90031   0.36359
H          H       0.09969   0.21511   0.36359
H          H       0.78489   0.88458   0.36359
O          O       0.36535   0.24754   0.34505
O          O       0.75246   0.11781   0.34505
O          O       0.88219   0.63465   0.34505
H          H       0.22023   0.00318   0.04002
H          H       0.99682   0.21705   0.04002
H          H       0.78295   0.77977   0.04002
C          C       0.34407   0.26753   0.41729
C          C       0.73247   0.07654   0.41729
C          C       0.92346   0.65593   0.41729
H          H       0.45142   0.34473   0.24576
H          H       0.65527   0.10669   0.24576
H          H       0.89331   0.54858   0.24576
O          O       0.30276   0.08501   0.09979
O          O       0.91499   0.21775   0.09979
O          O       0.78225   0.69724   0.09979
H          H       0.49412   0.41890   0.12352
H          H       0.58110   0.07522   0.12352
H          H       0.92478   0.50588   0.12352
C          C       0.32431   0.06525   0.02757
C          C       0.93475   0.25906   0.02757
C          C       0.74094   0.67569   0.02757
H          H       0.55043   0.35348   0.47071
H          H       0.64652   0.19695   0.47071
H          H       0.80305   0.44957   0.47071
C          C       0.04496   0.02514   0.76409
C          C       0.97486   0.01982   0.76409
C          C       0.98018   0.95504   0.76409
N          N       0.17349   0.00010   0.87302
N          N       0.99990   0.17339   0.87302
N          N       0.82661   0.82651   0.87302
C          C       0.01910   0.04333   0.76633
C          C       0.95667   0.97577   0.76633
C          C       0.02423   0.98090   0.76633
N          N       0.49603   0.33306   0.62319
N          N       0.66694   0.16297   0.62319
N          N       0.83703   0.50397   0.62319
C          C       0.08945   0.04986   0.75263
C          C       0.95014   0.03959   0.75263
C          C       0.96041   0.91055   0.75263
C          C       0.13890   0.96564   0.81580
C          C       0.03436   0.17326   0.81580
C          C       0.82674   0.86110   0.81580
C          C       0.10920   0.08947   0.67030
C          C       0.91053   0.01973   0.67030
C          C       0.98027   0.89080   0.67030
C          C       0.13790   0.93064   0.88481
C          C       0.06936   0.20726   0.88481
C          C       0.79274   0.86210   0.88481
C          C       0.15282   0.11357   0.65644
C          C       0.88643   0.03925   0.65644
C          C       0.96075   0.84718   0.65644
N          N       0.17180   0.94344   0.98272
N          N       0.05656   0.22836   0.98272
N          N       0.77164   0.82820   0.98272
C          C       0.17782   0.09752   0.71500
C          C       0.90248   0.08030   0.71500
C          C       0.91970   0.82218   0.71500
C          C       0.19294   0.98537   0.97493
C          C       0.01463   0.20757   0.97493
C          C       0.79243   0.80706   0.97493
C          C       0.15987   0.05705   0.78850
C          C       0.94295   0.10282   0.78850
C          C       0.89718   0.84013   0.78850
C          C       0.47761   0.35515   0.67157
C          C       0.64485   0.12246   0.67157
C          C       0.87754   0.52239   0.67157
C          C       0.11616   0.03558   0.81712
C          C       0.96442   0.08058   0.81712
C          C       0.91942   0.88384   0.81712
C          C       0.50051   0.39526   0.60663
C          C       0.60474   0.10525   0.60663
C          C       0.89475   0.49949   0.60663
C          C       0.18683   0.04082   0.82810
C          C       0.95918   0.14601   0.82810
C          C       0.85399   0.81317   0.82810
N          N       0.53265   0.39775   0.51837
N          N       0.60225   0.13490   0.51837
N          N       0.86510   0.46735   0.51837
C          C       0.23041   0.06801   0.80879
C          C       0.93199   0.16240   0.80879
C          C       0.83760   0.76959   0.80879
C          C       0.52956   0.35997   0.52877
C          C       0.64003   0.16959   0.52877
C          C       0.83041   0.47044   0.52877
C          C       0.24700   0.10887   0.74470
C          C       0.89113   0.13813   0.74470
C          C       0.86187   0.75300   0.74470
H          H       0.03309   0.07502   0.76745
H          H       0.92498   0.95807   0.76745
H          H       0.04193   0.96691   0.76745
N          N       0.21976   0.12151   0.69821
N          N       0.87849   0.09825   0.69821
N          N       0.90175   0.78024   0.69821
H          H       0.09218   0.10136   0.61626
H          H       0.89864   0.99082   0.61626
H          H       0.00918   0.90782   0.61626
C          C       0.29030   0.13702   0.72947
C          C       0.86298   0.15328   0.72947
C          C       0.84672   0.70970   0.72947
H          H       0.16629   0.14244   0.60044
H          H       0.85756   0.02385   0.60044
H          H       0.97615   0.83371   0.60044
C          C       0.30652   0.17862   0.78736
C          C       0.82138   0.12790   0.78736
C          C       0.87210   0.69348   0.78736
H          H       0.10350   0.00863   0.88750
H          H       0.99137   0.09487   0.88750
H          H       0.90513   0.89650   0.88750
C          C       0.34964   0.20776   0.78322
C          C       0.79224   0.14188   0.78322
C          C       0.85812   0.65036   0.78322
H          H       0.25082   0.05811   0.83961
H          H       0.94189   0.19271   0.83961
H          H       0.80729   0.74918   0.83961
C          C       0.37744   0.19526   0.71750
C          C       0.80474   0.18218   0.71750
C          C       0.81782   0.62256   0.71750
H          H       0.28672   0.18776   0.83621
H          H       0.81224   0.09896   0.83621
H          H       0.90104   0.71328   0.83621
C          C       0.36129   0.15396   0.65672
C          C       0.84604   0.20733   0.65672
C          C       0.79267   0.63871   0.65672
H          H       0.38122   0.14499   0.60801
H          H       0.85501   0.23623   0.60801
H          H       0.76377   0.61878   0.60801
C          C       0.31814   0.12477   0.66113
C          C       0.87523   0.19337   0.66113
C          C       0.80663   0.68186   0.66113
H          H       0.41995   0.27374   0.60099
H          H       0.72626   0.14621   0.60099
H          H       0.85379   0.58005   0.60099
C          C       0.42089   0.22301   0.71588
C          C       0.77699   0.19788   0.71588
C          C       0.80212   0.57911   0.71588
H          H       0.56711   0.32946   0.69774
H          H       0.67054   0.23765   0.69774
H          H       0.76235   0.43289   0.69774
N          N       0.44644   0.21015   0.78192
N          N       0.78985   0.23629   0.78192
N          N       0.76371   0.55356   0.78192
H          H       0.56976   0.23033   0.95135
H          H       0.76967   0.33943   0.95135
H          H       0.66057   0.43024   0.95135
C          C       0.48840   0.23485   0.79249
C          C       0.76515   0.25355   0.79249
C          C       0.74645   0.51160   0.79249
H          H       0.49605   0.18842   0.91641
H          H       0.81158   0.30763   0.91641
H          H       0.69237   0.50395   0.91641
C          C       0.50831   0.27663   0.73153
C          C       0.72337   0.23168   0.73153
C          C       0.76832   0.49169   0.73153
H          H       0.63244   0.25830   0.83007
H          H       0.74170   0.37414   0.83007
H          H       0.62586   0.36756   0.83007
C          C       0.48258   0.29230   0.66634
C          C       0.70770   0.19028   0.66634
C          C       0.80972   0.51742   0.66634
H          H       0.32576   0.25017   0.52821
H          H       0.74983   0.07559   0.52821
H          H       0.92441   0.67424   0.52821
C          C       0.43907   0.26418   0.65382
C          C       0.73582   0.17489   0.65382
C          C       0.82511   0.56093   0.65382
H          H       0.32329   0.26969   0.82391
H          H       0.73031   0.05360   0.82391
H          H       0.94640   0.67671   0.82391
C          C       0.55241   0.29994   0.74468
C          C       0.70006   0.25247   0.74468
C          C       0.74753   0.44759   0.74468
H          H       0.36704   0.29902   0.95820
H          H       0.70098   0.06802   0.95820
H          H       0.93198   0.63296   0.95820
C          C       0.57696   0.28437   0.82078
C          C       0.71563   0.29259   0.82078
C          C       0.70741   0.42304   0.82078
H          H       0.34220   0.08238   0.91542
H          H       0.91762   0.25982   0.91542
H          H       0.74018   0.65780   0.91542
C          C       0.55472   0.24311   0.88739
C          C       0.75689   0.31161   0.88739
C          C       0.68839   0.44528   0.88739
H          H       0.30160   0.03351   0.98838
H          H       0.96649   0.26809   0.98838
H          H       0.73191   0.69840   0.98838
C          C       0.51121   0.21834   0.87008
C          C       0.78166   0.29287   0.87008
C          C       0.70713   0.48879   0.87008
H          H       0.34549   0.06363   0.62040
H          H       0.93637   0.28186   0.62040
H          H       0.71814   0.65451   0.62040
C          C       0.62159   0.30882   0.82820
C          C       0.69118   0.31277   0.82820
C          C       0.68723   0.37841   0.82820
H          H       0.11704   0.96462   0.73214
H          H       0.03538   0.15242   0.73214
H          H       0.84758   0.88296   0.73214
C          C       0.64689   0.29000   0.82966
C          C       0.71000   0.35689   0.82966
C          C       0.64311   0.35311   0.82966
H          H       0.11542   0.90031   0.86359
H          H       0.09969   0.21511   0.86359
H          H       0.78489   0.88458   0.86359
O          O       0.36535   0.24754   0.84505
O          O       0.75246   0.11781   0.84505
O          O       0.88219   0.63465   0.84505
H          H       0.22023   0.00318   0.54002
H          H       0.99682   0.21705   0.54002
H          H       0.78295   0.77977   0.54002
C          C       0.34407   0.26753   0.91729
C          C       0.73247   0.07654   0.91729
C          C       0.92346   0.65593   0.91729
H          H       0.45142   0.34473   0.74576
H          H       0.65527   0.10669   0.74576
H          H       0.89331   0.54858   0.74576
O          O       0.30276   0.08501   0.59979
O          O       0.91499   0.21775   0.59979
O          O       0.78225   0.69724   0.59979
H          H       0.49412   0.41890   0.62352
H          H       0.58110   0.07522   0.62352
H          H       0.92478   0.50588   0.62352
C          C       0.32431   0.06525   0.52757
C          C       0.93475   0.25906   0.52757
C          C       0.74094   0.67569   0.52757
H          H       0.55043   0.35348   0.97071
H          H       0.64652   0.19695   0.97071
H          H       0.80305   0.44957   0.97071
