data_crystal

_cell_length_a    21.48010
_cell_length_b    21.48030
_cell_length_c    7.05520
_cell_angle_alpha 90.00000
_cell_angle_beta  90.00000
_cell_angle_gamma 60.00000

_space_group_name_Hall 'P 1'
_space_group_name_H-M_alt  'P 1'

loop_
_symmetry_equiv_pos_as_xyz
'x,y,z'

loop_
_atom_site_label
_atom_site_type_symbol
_atom_site_fract_x
_atom_site_fract_y
_atom_site_fract_z
C          C       0.06710   0.43725   0.25000
C          C       0.50753   0.56110   0.25000
C          C       0.00287   0.43565   0.25000
C          C       0.57061   0.49716   0.25000
C          C       0.94030   0.50306   0.25000
O          O       0.62774   0.50961   0.25000
C          C       0.94135   0.56590   0.25000
N          N       0.48785   0.38052   0.25000
C          C       0.00560   0.56762   0.25000
C          C       0.50464   0.43593   0.25000
C          C       0.06835   0.50018   0.25000
C          C       0.44196   0.49991   0.25000
O          O       0.13624   0.37993   0.25000
O          O       0.38471   0.48790   0.25000
C          C       0.17846   0.41388   0.25000
N          N       0.38473   0.13587   0.25000
N          N       0.14025   0.48411   0.25000
C          C       0.44084   0.06443   0.25000
O          O       0.87177   0.62294   0.25000
C          C       0.50466   0.06375   0.25000
C          C       0.82956   0.58912   0.25000
O          O       0.49175   0.13350   0.25000
N          N       0.86847   0.51926   0.25000
C          C       0.43620   0.00184   0.25000
C          C       0.26002   0.37274   0.25000
C          C       0.57221   0.43117   0.25000
C          C       0.74764   0.62915   0.25000
C          C       0.57073   0.99943   0.25000
C          C       0.29894   0.40976   0.25000
C          C       0.44025   0.56571   0.25000
C          C       0.37618   0.37177   0.25000
O          O       0.25604   0.48465   0.25000
C          C       0.41202   0.29443   0.25000
O          O       0.74013   0.51634   0.25000
C          C       0.37325   0.25677   0.25000
O          O       0.48662   0.25043   0.25000
C          C       0.29662   0.29718   0.25000
O          O       0.51885   0.73470   0.25000
C          C       0.70838   0.59114   0.25000
O          O       0.25250   0.26653   0.25000
C          C       0.63266   0.62799   0.25000
O          O       0.73725   0.75028   0.25000
C          C       0.59363   0.70374   0.25000
H          H       0.00222   0.38570   0.25000
C          C       0.62971   0.74426   0.25000
H          H       0.00639   0.61750   0.25000
C          C       0.70628   0.70649   0.25000
H          H       0.38561   0.00254   0.25000
C          C       0.41783   0.41210   0.25000
H          H       0.62216   0.38064   0.25000
C          C       0.41545   0.17503   0.25000
H          H       0.62129   0.99885   0.25000
C          C       0.58935   0.82618   0.25000
H          H       0.39041   0.61634   0.25000
C          C       0.59311   0.58591   0.25000
H          H       0.27557   0.51825   0.25000
N          N       0.62148   0.86438   0.25000
H          H       0.79254   0.48031   0.25000
C          C       0.56603   0.93653   0.25000
H          H       0.52301   0.26635   0.25000
C          C       0.50192   0.93783   0.25000
H          H       0.48524   0.78786   0.25000
O          O       0.51350   0.86876   0.25000
H          H       0.27015   0.21377   0.25000
N          N       0.52302   0.61716   0.25000
H          H       0.79024   0.73135   0.25000
C          C       0.06710   0.43725   0.75000
C          C       0.50753   0.56110   0.75000
C          C       0.00287   0.43565   0.75000
C          C       0.57061   0.49716   0.75000
C          C       0.94030   0.50306   0.75000
O          O       0.62774   0.50961   0.75000
C          C       0.94135   0.56590   0.75000
N          N       0.48785   0.38052   0.75000
C          C       0.00560   0.56762   0.75000
C          C       0.50464   0.43593   0.75000
C          C       0.06835   0.50018   0.75000
C          C       0.44196   0.49991   0.75000
O          O       0.13624   0.37993   0.75000
O          O       0.38471   0.48790   0.75000
C          C       0.17846   0.41388   0.75000
N          N       0.38473   0.13587   0.75000
N          N       0.14025   0.48411   0.75000
C          C       0.44084   0.06443   0.75000
O          O       0.87177   0.62294   0.75000
C          C       0.50466   0.06375   0.75000
C          C       0.82956   0.58912   0.75000
O          O       0.49175   0.13350   0.75000
N          N       0.86847   0.51926   0.75000
C          C       0.43620   0.00184   0.75000
C          C       0.26002   0.37274   0.75000
C          C       0.57221   0.43117   0.75000
C          C       0.74764   0.62915   0.75000
C          C       0.57073   0.99943   0.75000
C          C       0.29894   0.40976   0.75000
C          C       0.44025   0.56571   0.75000
C          C       0.37618   0.37177   0.75000
O          O       0.25604   0.48465   0.75000
C          C       0.41202   0.29443   0.75000
O          O       0.74013   0.51634   0.75000
C          C       0.37325   0.25677   0.75000
O          O       0.48662   0.25043   0.75000
C          C       0.29662   0.29718   0.75000
O          O       0.51885   0.73470   0.75000
C          C       0.70838   0.59114   0.75000
O          O       0.25250   0.26653   0.75000
C          C       0.63266   0.62799   0.75000
O          O       0.73725   0.75028   0.75000
C          C       0.59363   0.70374   0.75000
H          H       0.00222   0.38570   0.75000
C          C       0.62971   0.74426   0.75000
H          H       0.00639   0.61750   0.75000
C          C       0.70628   0.70649   0.75000
H          H       0.38561   0.00254   0.75000
C          C       0.41783   0.41210   0.75000
H          H       0.62216   0.38064   0.75000
C          C       0.41545   0.17503   0.75000
H          H       0.62129   0.99885   0.75000
C          C       0.58935   0.82618   0.75000
H          H       0.39041   0.61634   0.75000
C          C       0.59311   0.58591   0.75000
H          H       0.27557   0.51825   0.75000
N          N       0.62148   0.86438   0.75000
H          H       0.79254   0.48031   0.75000
C          C       0.56603   0.93653   0.75000
H          H       0.52301   0.26635   0.75000
C          C       0.50192   0.93783   0.75000
H          H       0.48524   0.78786   0.75000
O          O       0.51350   0.86876   0.75000
H          H       0.27015   0.21377   0.75000
N          N       0.52302   0.61716   0.75000
H          H       0.79024   0.73135   0.75000
