data_crystal

_cell_length_a    21.15170
_cell_length_b    21.15170
_cell_length_c    6.97660
_cell_angle_alpha 90.00000
_cell_angle_beta  90.00000
_cell_angle_gamma 120.00000

_space_group_name_Hall 'P 1'
_space_group_name_H-M_alt  'P 1'

loop_
_symmetry_equiv_pos_as_xyz
'x,y,z'

loop_
_atom_site_label
_atom_site_type_symbol
_atom_site_fract_x
_atom_site_fract_y
_atom_site_fract_z
C          C       0.43591   0.50072   0.00000
C          C       0.49928   0.93519   0.00000
C          C       0.06481   0.56409   0.00000
C          C       0.56409   0.49928   0.00000
C          C       0.50072   0.06481   0.00000
C          C       0.93519   0.43591   0.00000
C          C       0.43181   0.43258   0.00000
C          C       0.56742   0.99923   0.00000
C          C       0.00077   0.56819   0.00000
C          C       0.56819   0.56742   0.00000
C          C       0.43258   0.00077   0.00000
C          C       0.99923   0.43181   0.00000
C          C       0.49895   0.43473   0.00000
C          C       0.56527   0.06422   0.00000
C          C       0.93578   0.50105   0.00000
C          C       0.50105   0.56527   0.00000
C          C       0.43473   0.93578   0.00000
C          C       0.06422   0.49895   0.00000
N          N       0.37826   0.51582   0.00000
N          N       0.48418   0.86244   0.00000
N          N       0.13756   0.62174   0.00000
N          N       0.62174   0.48418   0.00000
N          N       0.51582   0.13756   0.00000
N          N       0.86244   0.37826   0.00000
C          C       0.41136   0.58701   0.00000
C          C       0.41299   0.82435   0.00000
C          C       0.17565   0.58864   0.00000
C          C       0.58864   0.41299   0.00000
C          C       0.58701   0.17565   0.00000
C          C       0.82435   0.41136   0.00000
O          O       0.48848   0.62337   0.00000
O          O       0.37663   0.86511   0.00000
O          O       0.13489   0.51152   0.00000
O          O       0.51152   0.37663   0.00000
O          O       0.62337   0.13489   0.00000
O          O       0.86511   0.48848   0.00000
C          C       0.37103   0.62744   0.00000
C          C       0.37256   0.74359   0.00000
C          C       0.25641   0.62897   0.00000
C          C       0.62897   0.37256   0.00000
C          C       0.62744   0.25641   0.00000
C          C       0.74359   0.37103   0.00000
C          C       0.40970   0.70403   0.00000
C          C       0.29597   0.70567   0.00000
C          C       0.29433   0.59030   0.00000
C          C       0.59030   0.29597   0.00000
C          C       0.70403   0.29433   0.00000
C          C       0.70567   0.40970   0.00000
H          H       0.38059   0.38174   0.00000
H          H       0.61826   0.99885   0.00000
H          H       0.00115   0.61941   0.00000
H          H       0.61941   0.61826   0.00000
H          H       0.38174   0.00115   0.00000
H          H       0.99885   0.38059   0.00000
H          H       0.46899   0.73280   0.00000
H          H       0.26720   0.73619   0.00000
H          H       0.26381   0.53101   0.00000
H          H       0.53101   0.26720   0.00000
H          H       0.73280   0.26381   0.00000
H          H       0.73619   0.46899   0.00000
C          C       0.43591   0.50072   0.50000
C          C       0.49928   0.93519   0.50000
C          C       0.06481   0.56409   0.50000
C          C       0.56409   0.49928   0.50000
C          C       0.50072   0.06481   0.50000
C          C       0.93519   0.43591   0.50000
C          C       0.43181   0.43258   0.50000
C          C       0.56742   0.99923   0.50000
C          C       0.00077   0.56819   0.50000
C          C       0.56819   0.56742   0.50000
C          C       0.43258   0.00077   0.50000
C          C       0.99923   0.43181   0.50000
C          C       0.49895   0.43473   0.50000
C          C       0.56527   0.06422   0.50000
C          C       0.93578   0.50105   0.50000
C          C       0.50105   0.56527   0.50000
C          C       0.43473   0.93578   0.50000
C          C       0.06422   0.49895   0.50000
N          N       0.37826   0.51582   0.50000
N          N       0.48418   0.86244   0.50000
N          N       0.13756   0.62174   0.50000
N          N       0.62174   0.48418   0.50000
N          N       0.51582   0.13756   0.50000
N          N       0.86244   0.37826   0.50000
C          C       0.41136   0.58701   0.50000
C          C       0.41299   0.82435   0.50000
C          C       0.17565   0.58864   0.50000
C          C       0.58864   0.41299   0.50000
C          C       0.58701   0.17565   0.50000
C          C       0.82435   0.41136   0.50000
O          O       0.48848   0.62337   0.50000
O          O       0.37663   0.86511   0.50000
O          O       0.13489   0.51152   0.50000
O          O       0.51152   0.37663   0.50000
O          O       0.62337   0.13489   0.50000
O          O       0.86511   0.48848   0.50000
C          C       0.37103   0.62744   0.50000
C          C       0.37256   0.74359   0.50000
C          C       0.25641   0.62897   0.50000
C          C       0.62897   0.37256   0.50000
C          C       0.62744   0.25641   0.50000
C          C       0.74359   0.37103   0.50000
C          C       0.40970   0.70403   0.50000
C          C       0.29597   0.70567   0.50000
C          C       0.29433   0.59030   0.50000
C          C       0.59030   0.29597   0.50000
C          C       0.70403   0.29433   0.50000
C          C       0.70567   0.40970   0.50000
H          H       0.38059   0.38174   0.50000
H          H       0.61826   0.99885   0.50000
H          H       0.00115   0.61941   0.50000
H          H       0.61941   0.61826   0.50000
H          H       0.38174   0.00115   0.50000
H          H       0.99885   0.38059   0.50000
H          H       0.46899   0.73280   0.50000
H          H       0.26720   0.73619   0.50000
H          H       0.26381   0.53101   0.50000
H          H       0.53101   0.26720   0.50000
H          H       0.73280   0.26381   0.50000
H          H       0.73619   0.46899   0.50000
