data_crystal

_cell_length_a    20.72870
_cell_length_b    21.41010
_cell_length_c    7.12460
_cell_angle_alpha 90.00000
_cell_angle_beta  90.00000
_cell_angle_gamma 120.00000

_space_group_name_Hall 'P 1'
_space_group_name_H-M_alt  'P 1'

loop_
_symmetry_equiv_pos_as_xyz
'x,y,z'

loop_
_atom_site_label
_atom_site_type_symbol
_atom_site_fract_x
_atom_site_fract_y
_atom_site_fract_z
C          C       0.43843   0.50195   0.25000
N          N       0.14165   0.52529   0.25000
C          C       0.43534   0.43580   0.25000
C          C       0.07084   0.50952   0.25000
C          C       0.50234   0.43607   0.25000
C          C       0.06725   0.56910   0.25000
C          C       0.56711   0.49741   0.25000
O          O       0.13784   0.62703   0.25000
C          C       0.57026   0.56357   0.25000
N          N       0.86609   0.48130   0.25000
C          C       0.50325   0.56327   0.25000
C          C       0.93603   0.49870   0.25000
O          O       0.38103   0.51677   0.25000
C          C       0.93925   0.43913   0.25000
C          C       0.41844   0.59094   0.25000
O          O       0.86869   0.37935   0.25000
N          N       0.49186   0.61905   0.25000
N          N       0.61891   0.13361   0.25000
O          O       0.62406   0.48226   0.25000
C          C       0.56634   0.06526   0.25000
C          C       0.58646   0.40795   0.25000
C          C       0.50370   0.06193   0.25000
N          N       0.51348   0.37997   0.25000
O          O       0.51489   0.13044   0.25000
C          C       0.37967   0.63350   0.25000
C          C       0.00685   0.44202   0.25000
C          C       0.62540   0.36568   0.25000
C          C       0.43983   0.99641   0.25000
C          C       0.41750   0.70826   0.25000
C          C       0.99982   0.56616   0.25000
C          C       0.37964   0.74760   0.25000
C          C       0.57058   0.00336   0.25000
C          C       0.30260   0.71056   0.25000
O          O       0.74348   0.25373   0.25000
C          C       0.26373   0.63538   0.25000
O          O       0.26502   0.74821   0.25000
C          C       0.30288   0.59762   0.25000
O          O       0.49123   0.74097   0.25000
C          C       0.58722   0.28947   0.25000
O          O       0.50968   0.24957   0.25000
C          C       0.62756   0.25252   0.25000
H          H       0.38435   0.38777   0.25000
C          C       0.70592   0.29150   0.25000
H          H       0.62114   0.61149   0.25000
C          C       0.74424   0.36738   0.25000
H          H       0.27326   0.53953   0.25000
C          C       0.70351   0.40362   0.25000
H          H       0.73276   0.46222   0.25000
C          C       0.82612   0.40944   0.25000
H          H       0.00914   0.39468   0.25000
C          C       0.58783   0.17268   0.25000
H          H       0.39062   0.99391   0.25000
C          C       0.42102   0.82723   0.25000
H          H       0.99764   0.61264   0.25000
C          C       0.18157   0.59630   0.25000
H          H       0.61949   0.00571   0.25000
N          N       0.39049   0.86642   0.25000
H          H       0.79488   0.28347   0.25000
C          C       0.44399   0.93462   0.25000
H          H       0.26159   0.77272   0.25000
C          C       0.50666   0.93775   0.25000
H          H       0.51140   0.79009   0.25000
O          O       0.49465   0.86895   0.25000
H          H       0.48686   0.26798   0.25000
C          C       0.43843   0.50195   0.75000
N          N       0.14165   0.52529   0.75000
C          C       0.43534   0.43580   0.75000
C          C       0.07084   0.50952   0.75000
C          C       0.50234   0.43607   0.75000
C          C       0.06725   0.56910   0.75000
C          C       0.56711   0.49741   0.75000
O          O       0.13784   0.62703   0.75000
C          C       0.57026   0.56357   0.75000
N          N       0.86609   0.48130   0.75000
C          C       0.50325   0.56327   0.75000
C          C       0.93603   0.49870   0.75000
O          O       0.38103   0.51677   0.75000
C          C       0.93925   0.43913   0.75000
C          C       0.41844   0.59094   0.75000
O          O       0.86869   0.37935   0.75000
N          N       0.49186   0.61905   0.75000
N          N       0.61891   0.13361   0.75000
O          O       0.62406   0.48226   0.75000
C          C       0.56634   0.06526   0.75000
C          C       0.58646   0.40795   0.75000
C          C       0.50370   0.06193   0.75000
N          N       0.51348   0.37997   0.75000
O          O       0.51489   0.13044   0.75000
C          C       0.37967   0.63350   0.75000
C          C       0.00685   0.44202   0.75000
C          C       0.62540   0.36568   0.75000
C          C       0.43983   0.99641   0.75000
C          C       0.41750   0.70826   0.75000
C          C       0.99982   0.56616   0.75000
C          C       0.37964   0.74760   0.75000
C          C       0.57058   0.00336   0.75000
C          C       0.30260   0.71056   0.75000
O          O       0.74348   0.25373   0.75000
C          C       0.26373   0.63538   0.75000
O          O       0.26502   0.74821   0.75000
C          C       0.30288   0.59762   0.75000
O          O       0.49123   0.74097   0.75000
C          C       0.58722   0.28947   0.75000
O          O       0.50968   0.24957   0.75000
C          C       0.62756   0.25252   0.75000
H          H       0.38435   0.38777   0.75000
C          C       0.70592   0.29150   0.75000
H          H       0.62114   0.61149   0.75000
C          C       0.74424   0.36738   0.75000
H          H       0.27326   0.53953   0.75000
C          C       0.70351   0.40362   0.75000
H          H       0.73276   0.46222   0.75000
C          C       0.82612   0.40944   0.75000
H          H       0.00914   0.39468   0.75000
C          C       0.58783   0.17268   0.75000
H          H       0.39062   0.99391   0.75000
C          C       0.42102   0.82723   0.75000
H          H       0.99764   0.61264   0.75000
C          C       0.18157   0.59630   0.75000
H          H       0.61949   0.00571   0.75000
N          N       0.39049   0.86642   0.75000
H          H       0.79488   0.28347   0.75000
C          C       0.44399   0.93462   0.75000
H          H       0.26159   0.77272   0.75000
C          C       0.50666   0.93775   0.75000
H          H       0.51140   0.79009   0.75000
O          O       0.49465   0.86895   0.75000
H          H       0.48686   0.26798   0.75000
