data_crystal

_cell_length_a    20.61560
_cell_length_b    21.44120
_cell_length_c    7.06220
_cell_angle_alpha 90.00000
_cell_angle_beta  90.00000
_cell_angle_gamma 120.00000

_space_group_name_Hall 'P 1'
_space_group_name_H-M_alt  'P 1'

loop_
_symmetry_equiv_pos_as_xyz
'x,y,z'

loop_
_atom_site_label
_atom_site_type_symbol
_atom_site_fract_x
_atom_site_fract_y
_atom_site_fract_z
C          C       0.43952   0.50298   0.25000
O          O       0.49770   0.87153   0.25000
C          C       0.43563   0.43639   0.25000
N          N       0.14337   0.52249   0.25000
C          C       0.50229   0.43628   0.25000
C          C       0.07221   0.50723   0.25000
C          C       0.56750   0.49760   0.25000
C          C       0.06812   0.56924   0.25000
C          C       0.57151   0.56434   0.25000
O          O       0.13915   0.62873   0.25000
C          C       0.50478   0.56445   0.25000
N          N       0.86498   0.48317   0.25000
O          O       0.38295   0.51842   0.25000
C          C       0.93579   0.49892   0.25000
C          C       0.42116   0.59308   0.25000
C          C       0.93981   0.43693   0.25000
N          N       0.49438   0.62103   0.25000
O          O       0.86901   0.37694   0.25000
O          O       0.62462   0.48234   0.25000
N          N       0.62122   0.13581   0.25000
C          C       0.58653   0.40811   0.25000
C          C       0.56688   0.06701   0.25000
N          N       0.51333   0.38026   0.25000
C          C       0.50046   0.06241   0.25000
C          C       0.38282   0.63570   0.25000
O          O       0.51022   0.13025   0.25000
C          C       0.62595   0.36674   0.25000
C          C       0.00832   0.43862   0.25000
C          C       0.42114   0.71096   0.25000
C          C       0.43480   0.99643   0.25000
C          C       0.38208   0.74919   0.25000
C          C       0.99964   0.56753   0.25000
C          C       0.30413   0.71081   0.25000
C          C       0.57302   0.00576   0.25000
C          C       0.26543   0.63566   0.25000
O          O       0.49604   0.74514   0.25000
C          C       0.30550   0.59892   0.25000
O          O       0.51220   0.25132   0.25000
C          C       0.58767   0.29069   0.25000
H          H       0.38457   0.38853   0.25000
C          C       0.62663   0.25359   0.25000
H          H       0.62294   0.61249   0.25000
C          C       0.70446   0.29316   0.25000
H          H       0.27334   0.73954   0.25000
C          C       0.74330   0.36869   0.25000
H          H       0.27605   0.54070   0.25000
C          C       0.70345   0.40484   0.25000
H          H       0.73535   0.26520   0.25000
C          C       0.82538   0.41003   0.25000
H          H       0.73264   0.46339   0.25000
C          C       0.58661   0.17360   0.25000
H          H       0.01143   0.38988   0.25000
C          C       0.42186   0.82878   0.25000
H          H       0.38309   0.99338   0.25000
C          C       0.18306   0.59537   0.25000
H          H       0.99667   0.61605   0.25000
N          N       0.38706   0.86659   0.25000
H          H       0.62494   0.00891   0.25000
C          C       0.44097   0.93523   0.25000
H          H       0.51551   0.79374   0.25000
C          C       0.50727   0.93967   0.25000
H          H       0.49462   0.27675   0.25000
C          C       0.43952   0.50298   0.75000
O          O       0.49770   0.87153   0.75000
C          C       0.43563   0.43639   0.75000
N          N       0.14337   0.52249   0.75000
C          C       0.50229   0.43628   0.75000
C          C       0.07221   0.50723   0.75000
C          C       0.56750   0.49760   0.75000
C          C       0.06812   0.56924   0.75000
C          C       0.57151   0.56434   0.75000
O          O       0.13915   0.62873   0.75000
C          C       0.50478   0.56445   0.75000
N          N       0.86498   0.48317   0.75000
O          O       0.38295   0.51842   0.75000
C          C       0.93579   0.49892   0.75000
C          C       0.42116   0.59308   0.75000
C          C       0.93981   0.43693   0.75000
N          N       0.49438   0.62103   0.75000
O          O       0.86901   0.37694   0.75000
O          O       0.62462   0.48234   0.75000
N          N       0.62122   0.13581   0.75000
C          C       0.58653   0.40811   0.75000
C          C       0.56688   0.06701   0.75000
N          N       0.51333   0.38026   0.75000
C          C       0.50046   0.06241   0.75000
C          C       0.38282   0.63570   0.75000
O          O       0.51022   0.13025   0.75000
C          C       0.62595   0.36674   0.75000
C          C       0.00832   0.43862   0.75000
C          C       0.42114   0.71096   0.75000
C          C       0.43480   0.99643   0.75000
C          C       0.38208   0.74919   0.75000
C          C       0.99964   0.56753   0.75000
C          C       0.30413   0.71081   0.75000
C          C       0.57302   0.00576   0.75000
C          C       0.26543   0.63566   0.75000
O          O       0.49604   0.74514   0.75000
C          C       0.30550   0.59892   0.75000
O          O       0.51220   0.25132   0.75000
C          C       0.58767   0.29069   0.75000
H          H       0.38457   0.38853   0.75000
C          C       0.62663   0.25359   0.75000
H          H       0.62294   0.61249   0.75000
C          C       0.70446   0.29316   0.75000
H          H       0.27334   0.73954   0.75000
C          C       0.74330   0.36869   0.75000
H          H       0.27605   0.54070   0.75000
C          C       0.70345   0.40484   0.75000
H          H       0.73535   0.26520   0.75000
C          C       0.82538   0.41003   0.75000
H          H       0.73264   0.46339   0.75000
C          C       0.58661   0.17360   0.75000
H          H       0.01143   0.38988   0.75000
C          C       0.42186   0.82878   0.75000
H          H       0.38309   0.99338   0.75000
C          C       0.18306   0.59537   0.75000
H          H       0.99667   0.61605   0.75000
N          N       0.38706   0.86659   0.75000
H          H       0.62494   0.00891   0.75000
C          C       0.44097   0.93523   0.75000
H          H       0.51551   0.79374   0.75000
C          C       0.50727   0.93967   0.75000
H          H       0.49462   0.27675   0.75000
