data_crystal

_cell_length_a    36.52830
_cell_length_b    36.52830
_cell_length_c    7.61300
_cell_angle_alpha 90.00000
_cell_angle_beta  90.00000
_cell_angle_gamma 120.00000

_space_group_name_Hall 'P 1'
_space_group_name_H-M_alt  'P 1'

loop_
_symmetry_equiv_pos_as_xyz
'x,y,z'

loop_
_atom_site_label
_atom_site_type_symbol
_atom_site_fract_x
_atom_site_fract_y
_atom_site_fract_z
O          O       0.49067   0.09519   0.11194
O          O       0.90481   0.39548   0.11194
O          O       0.60452   0.50933   0.11194
O          O       0.90481   0.50933   0.38806
O          O       0.60452   0.09519   0.38806
O          O       0.49067   0.39548   0.38806
O          O       0.50933   0.90481   0.38806
O          O       0.09519   0.60452   0.38806
O          O       0.39548   0.49067   0.38806
O          O       0.09519   0.49067   0.11194
O          O       0.39548   0.90481   0.11194
O          O       0.50933   0.60452   0.11194
C          C       0.21852   0.63890   0.17875
C          C       0.36110   0.57962   0.17875
C          C       0.42038   0.78148   0.17875
C          C       0.36110   0.78148   0.32124
C          C       0.42038   0.63890   0.32124
C          C       0.21852   0.57962   0.32124
C          C       0.78148   0.36110   0.32124
C          C       0.63890   0.42038   0.32124
C          C       0.57962   0.21852   0.32124
C          C       0.63890   0.21852   0.17875
C          C       0.57962   0.36110   0.17875
C          C       0.78148   0.42038   0.17875
C          C       0.17441   0.61713   0.17866
C          C       0.38287   0.55728   0.17866
C          C       0.44272   0.82559   0.17866
C          C       0.38287   0.82559   0.32134
C          C       0.44272   0.61713   0.32134
C          C       0.17441   0.55728   0.32134
C          C       0.82559   0.38287   0.32134
C          C       0.61713   0.44272   0.32134
C          C       0.55728   0.17441   0.32134
C          C       0.61713   0.17441   0.17866
C          C       0.55728   0.38287   0.17866
C          C       0.82559   0.44272   0.17866
C          C       0.42990   0.51204   0.31675
C          C       0.48796   0.91786   0.31675
C          C       0.08214   0.57010   0.31675
C          C       0.48796   0.57010   0.18325
C          C       0.08214   0.51204   0.18325
C          C       0.42990   0.91786   0.18325
C          C       0.57010   0.48796   0.18325
C          C       0.51204   0.08214   0.18325
C          C       0.91786   0.42990   0.18325
C          C       0.51204   0.42990   0.31675
C          C       0.91786   0.48796   0.31675
C          C       0.57010   0.08214   0.31675
C          C       0.46381   0.50105   0.28800
C          C       0.49895   0.96276   0.28800
C          C       0.03724   0.53619   0.28800
C          C       0.49895   0.53619   0.21200
C          C       0.03724   0.50105   0.21200
C          C       0.46381   0.96276   0.21200
C          C       0.53619   0.49895   0.21200
C          C       0.50105   0.03724   0.21200
C          C       0.96276   0.46381   0.21200
C          C       0.50105   0.46381   0.28800
C          C       0.96276   0.49895   0.28800
C          C       0.53619   0.03724   0.28800
H          H       0.23528   0.67003   0.11640
H          H       0.32997   0.56525   0.11640
H          H       0.43475   0.76472   0.11640
H          H       0.32997   0.76472   0.38360
H          H       0.43475   0.67003   0.38360
H          H       0.23528   0.56525   0.38360
H          H       0.76472   0.32997   0.38360
H          H       0.67003   0.43475   0.38360
H          H       0.56525   0.23528   0.38360
H          H       0.67003   0.23528   0.11640
H          H       0.56525   0.32997   0.11640
H          H       0.76472   0.43475   0.11640
H          H       0.15690   0.63099   0.11898
H          H       0.36901   0.52591   0.11898
H          H       0.47409   0.84310   0.11898
H          H       0.36901   0.84310   0.38102
H          H       0.47409   0.63099   0.38102
H          H       0.15690   0.52591   0.38102
H          H       0.84310   0.36901   0.38102
H          H       0.63099   0.47409   0.38102
H          H       0.52591   0.15690   0.38102
H          H       0.63099   0.15690   0.11898
H          H       0.52591   0.36901   0.11898
H          H       0.84310   0.47409   0.11898
C          C       0.31127   0.68873   0.25000
C          C       0.31127   0.62254   0.25000
C          C       0.37746   0.68873   0.25000
C          C       0.68873   0.31127   0.25000
C          C       0.68873   0.37746   0.25000
C          C       0.62254   0.31127   0.25000
H          H       0.29398   0.70602   0.25000
H          H       0.29398   0.58796   0.25000
H          H       0.41204   0.70602   0.25000
H          H       0.70602   0.29398   0.25000
H          H       0.70602   0.41204   0.25000
H          H       0.58796   0.29398   0.25000
C          C       0.28849   0.64424   0.25000
C          C       0.35576   0.64425   0.25000
C          C       0.35575   0.71151   0.25000
C          C       0.71151   0.35576   0.25000
C          C       0.64424   0.35575   0.25000
C          C       0.64425   0.28849   0.25000
C          C       0.15253   0.57627   0.25000
C          C       0.42373   0.57626   0.25000
C          C       0.42374   0.84747   0.25000
C          C       0.84747   0.42373   0.25000
C          C       0.57627   0.42374   0.25000
C          C       0.57626   0.15253   0.25000
C          C       0.37924   0.75847   0.25000
C          C       0.24153   0.62077   0.25000
C          C       0.37923   0.62076   0.25000
C          C       0.62076   0.24153   0.25000
C          C       0.75847   0.37923   0.25000
C          C       0.62077   0.37924   0.25000
N          N       0.44632   0.89264   0.25000
N          N       0.10736   0.55368   0.25000
N          N       0.44632   0.55368   0.25000
N          N       0.55368   0.10736   0.25000
N          N       0.89264   0.44632   0.25000
N          N       0.55368   0.44632   0.25000
C          C       0.53640   0.53640   0.17153
C          C       0.46360   0.00000   0.17153
C          C       0.00000   0.46360   0.17153
C          C       0.46360   0.46360   0.32847
C          C       0.00000   0.53640   0.32847
C          C       0.53640   0.00000   0.32847
H          H       0.56374   0.56374   0.11272
H          H       0.43626   0.00000   0.11272
H          H       0.00000   0.43626   0.11272
H          H       0.43626   0.43626   0.38728
H          H       0.00000   0.56374   0.38728
H          H       0.56374   0.00000   0.38728
O          O       0.49067   0.09519   0.61194
O          O       0.90481   0.39548   0.61194
O          O       0.60452   0.50933   0.61194
O          O       0.90481   0.50933   0.88806
O          O       0.60452   0.09519   0.88806
O          O       0.49067   0.39548   0.88806
O          O       0.50933   0.90481   0.88806
O          O       0.09519   0.60452   0.88806
O          O       0.39548   0.49067   0.88806
O          O       0.09519   0.49067   0.61194
O          O       0.39548   0.90481   0.61194
O          O       0.50933   0.60452   0.61194
C          C       0.21852   0.63890   0.67875
C          C       0.36110   0.57962   0.67875
C          C       0.42038   0.78148   0.67875
C          C       0.36110   0.78148   0.82124
C          C       0.42038   0.63890   0.82124
C          C       0.21852   0.57962   0.82124
C          C       0.78148   0.36110   0.82124
C          C       0.63890   0.42038   0.82124
C          C       0.57962   0.21852   0.82124
C          C       0.63890   0.21852   0.67875
C          C       0.57962   0.36110   0.67875
C          C       0.78148   0.42038   0.67875
C          C       0.17441   0.61713   0.67866
C          C       0.38287   0.55728   0.67866
C          C       0.44272   0.82559   0.67866
C          C       0.38287   0.82559   0.82133
C          C       0.44272   0.61713   0.82133
C          C       0.17441   0.55728   0.82133
C          C       0.82559   0.38287   0.82133
C          C       0.61713   0.44272   0.82133
C          C       0.55728   0.17441   0.82133
C          C       0.61713   0.17441   0.67866
C          C       0.55728   0.38287   0.67866
C          C       0.82559   0.44272   0.67866
C          C       0.42990   0.51204   0.81675
C          C       0.48796   0.91786   0.81675
C          C       0.08214   0.57010   0.81675
C          C       0.48796   0.57010   0.68325
C          C       0.08214   0.51204   0.68325
C          C       0.42990   0.91786   0.68325
C          C       0.57010   0.48796   0.68325
C          C       0.51204   0.08214   0.68325
C          C       0.91786   0.42990   0.68325
C          C       0.51204   0.42990   0.81675
C          C       0.91786   0.48796   0.81675
C          C       0.57010   0.08214   0.81675
C          C       0.46381   0.50105   0.78800
C          C       0.49895   0.96276   0.78800
C          C       0.03724   0.53619   0.78800
C          C       0.49895   0.53619   0.71200
C          C       0.03724   0.50105   0.71200
C          C       0.46381   0.96276   0.71200
C          C       0.53619   0.49895   0.71200
C          C       0.50105   0.03724   0.71200
C          C       0.96276   0.46381   0.71200
C          C       0.50105   0.46381   0.78800
C          C       0.96276   0.49895   0.78800
C          C       0.53619   0.03724   0.78800
H          H       0.23528   0.67003   0.61640
H          H       0.32997   0.56525   0.61640
H          H       0.43475   0.76472   0.61640
H          H       0.32997   0.76472   0.88360
H          H       0.43475   0.67003   0.88360
H          H       0.23528   0.56525   0.88360
H          H       0.76472   0.32997   0.88360
H          H       0.67003   0.43475   0.88360
H          H       0.56525   0.23528   0.88360
H          H       0.67003   0.23528   0.61640
H          H       0.56525   0.32997   0.61640
H          H       0.76472   0.43475   0.61640
H          H       0.15690   0.63099   0.61898
H          H       0.36901   0.52591   0.61898
H          H       0.47409   0.84310   0.61898
H          H       0.36901   0.84310   0.88102
H          H       0.47409   0.63099   0.88102
H          H       0.15690   0.52591   0.88102
H          H       0.84310   0.36901   0.88102
H          H       0.63099   0.47409   0.88102
H          H       0.52591   0.15690   0.88102
H          H       0.63099   0.15690   0.61898
H          H       0.52591   0.36901   0.61898
H          H       0.84310   0.47409   0.61898
C          C       0.31127   0.68873   0.75000
C          C       0.31127   0.62254   0.75000
C          C       0.37746   0.68873   0.75000
C          C       0.68873   0.31127   0.75000
C          C       0.68873   0.37746   0.75000
C          C       0.62254   0.31127   0.75000
H          H       0.29398   0.70602   0.75000
H          H       0.29398   0.58796   0.75000
H          H       0.41204   0.70602   0.75000
H          H       0.70602   0.29398   0.75000
H          H       0.70602   0.41204   0.75000
H          H       0.58796   0.29398   0.75000
C          C       0.28849   0.64424   0.75000
C          C       0.35576   0.64425   0.75000
C          C       0.35575   0.71151   0.75000
C          C       0.71151   0.35576   0.75000
C          C       0.64424   0.35575   0.75000
C          C       0.64425   0.28849   0.75000
C          C       0.15253   0.57627   0.75000
C          C       0.42373   0.57626   0.75000
C          C       0.42374   0.84747   0.75000
C          C       0.84747   0.42373   0.75000
C          C       0.57627   0.42374   0.75000
C          C       0.57626   0.15253   0.75000
C          C       0.37924   0.75847   0.75000
C          C       0.24153   0.62077   0.75000
C          C       0.37923   0.62076   0.75000
C          C       0.62076   0.24153   0.75000
C          C       0.75847   0.37923   0.75000
C          C       0.62077   0.37924   0.75000
N          N       0.44632   0.89264   0.75000
N          N       0.10736   0.55368   0.75000
N          N       0.44632   0.55368   0.75000
N          N       0.55368   0.10736   0.75000
N          N       0.89264   0.44632   0.75000
N          N       0.55368   0.44632   0.75000
C          C       0.53640   0.53640   0.67152
C          C       0.46360   0.00000   0.67152
C          C       0.00000   0.46360   0.67152
C          C       0.46360   0.46360   0.82847
C          C       0.00000   0.53640   0.82847
C          C       0.53640   0.00000   0.82847
H          H       0.56374   0.56374   0.61272
H          H       0.43626   0.00000   0.61272
H          H       0.00000   0.43626   0.61272
H          H       0.43626   0.43626   0.88728
H          H       0.00000   0.56374   0.88728
H          H       0.56374   0.00000   0.88728
