data_crystal

_cell_length_a    37.07000
_cell_length_b    37.07000
_cell_length_c    7.78000
_cell_angle_alpha 90.00000
_cell_angle_beta  90.00000
_cell_angle_gamma 120.00000

_space_group_name_Hall 'P 1'
_space_group_name_H-M_alt  'P 1'

loop_
_symmetry_equiv_pos_as_xyz
 'x,y,z'

loop_
_atom_site_label
_atom_site_type_symbol
_atom_site_fract_x
_atom_site_fract_y
_atom_site_fract_z
O          O       0.49909   0.10956   0.11677
O          O       0.89044   0.38953   0.11677
O          O       0.61047   0.50091   0.11677
O          O       0.89044   0.50091   0.38323
O          O       0.61047   0.10956   0.38323
O          O       0.49909   0.38953   0.38323
O          O       0.50091   0.89044   0.38323
O          O       0.10956   0.61047   0.38323
O          O       0.38953   0.49909   0.38323
O          O       0.10956   0.49909   0.11677
O          O       0.38953   0.89044   0.11677
O          O       0.50091   0.61047   0.11677
C          C       0.57551   0.09011   0.31941
C          C       0.90989   0.48540   0.31941
C          C       0.51460   0.42449   0.31941
C          C       0.90989   0.42449   0.18059
C          C       0.51460   0.09011   0.18059
C          C       0.57551   0.48540   0.18059
C          C       0.42449   0.90989   0.18059
C          C       0.09011   0.51460   0.18059
C          C       0.48540   0.57551   0.18059
C          C       0.09011   0.57551   0.31941
C          C       0.48540   0.90989   0.31941
C          C       0.42449   0.51460   0.31941
C          C       0.49162   0.04389   0.18595
C          C       0.95611   0.44773   0.18595
C          C       0.55227   0.50838   0.18595
C          C       0.95611   0.50838   0.31405
C          C       0.55227   0.04389   0.31405
C          C       0.49162   0.44773   0.31405
C          C       0.50838   0.95611   0.31405
C          C       0.04389   0.55227   0.31405
C          C       0.44773   0.49162   0.31405
C          C       0.04389   0.49162   0.18595
C          C       0.44773   0.95611   0.18595
C          C       0.50838   0.55227   0.18595
C          C       0.45102   0.02188   0.12410
C          C       0.97812   0.42914   0.12410
C          C       0.57086   0.54898   0.12410
C          C       0.97812   0.54898   0.37590
C          C       0.57086   0.02188   0.37590
C          C       0.45102   0.42914   0.37590
C          C       0.54898   0.97812   0.37590
C          C       0.02188   0.57086   0.37590
C          C       0.42914   0.45102   0.37590
C          C       0.02188   0.45102   0.12410
C          C       0.42914   0.97812   0.12410
C          C       0.54898   0.57086   0.12410
C          C       0.22065   0.63848   0.17268
C          C       0.36152   0.58217   0.17268
C          C       0.41783   0.77935   0.17268
C          C       0.36152   0.77935   0.32732
C          C       0.41783   0.63848   0.32732
C          C       0.22065   0.58217   0.32732
C          C       0.77935   0.36152   0.32732
C          C       0.63848   0.41783   0.32732
C          C       0.58217   0.22065   0.32732
C          C       0.63848   0.22065   0.17268
C          C       0.58217   0.36152   0.17268
C          C       0.77935   0.41783   0.17268
C          C       0.17733   0.61700   0.17194
C          C       0.38300   0.56033   0.17194
C          C       0.43967   0.82267   0.17194
C          C       0.38300   0.82267   0.32806
C          C       0.43967   0.61700   0.32806
C          C       0.17733   0.56033   0.32806
C          C       0.82267   0.38300   0.32806
C          C       0.61700   0.43967   0.32806
C          C       0.56033   0.17733   0.32806
C          C       0.61700   0.17733   0.17194
C          C       0.56033   0.38300   0.17194
C          C       0.82267   0.43967   0.17194
H          H       0.43683   0.03939   0.07459
H          H       0.96061   0.39744   0.07459
H          H       0.60256   0.56317   0.07459
H          H       0.96061   0.56317   0.42541
H          H       0.60256   0.03939   0.42541
H          H       0.43683   0.39744   0.42541
H          H       0.56317   0.96061   0.42541
H          H       0.03939   0.60256   0.42541
H          H       0.39744   0.43683   0.42541
H          H       0.03939   0.43683   0.07459
H          H       0.39744   0.96061   0.07459
H          H       0.56317   0.60256   0.07459
H          H       0.23712   0.66829   0.10584
H          H       0.33171   0.56883   0.10584
H          H       0.43117   0.76288   0.10584
H          H       0.33171   0.76288   0.39416
H          H       0.43117   0.66829   0.39416
H          H       0.23712   0.56883   0.39416
H          H       0.76288   0.33171   0.39416
H          H       0.66829   0.43117   0.39416
H          H       0.56883   0.23712   0.39416
H          H       0.66829   0.23712   0.10584
H          H       0.56883   0.33171   0.10584
H          H       0.76288   0.43117   0.10584
H          H       0.16037   0.62993   0.10677
H          H       0.37007   0.53044   0.10677
H          H       0.46956   0.83963   0.10677
H          H       0.37007   0.83963   0.39323
H          H       0.46956   0.62993   0.39323
H          H       0.16037   0.53044   0.39323
H          H       0.83963   0.37007   0.39323
H          H       0.62993   0.46956   0.39323
H          H       0.53044   0.16037   0.39323
H          H       0.62993   0.16037   0.10677
H          H       0.53044   0.37007   0.10677
H          H       0.83963   0.46956   0.10677
C          C       0.51109   0.02218   0.25000
C          C       0.97782   0.48891   0.25000
C          C       0.51109   0.48891   0.25000
C          C       0.48891   0.97782   0.25000
C          C       0.02218   0.51109   0.25000
C          C       0.48891   0.51109   0.25000
C          C       0.31167   0.68833   0.25000
C          C       0.31167   0.62334   0.25000
C          C       0.37666   0.68833   0.25000
C          C       0.68833   0.31167   0.25000
C          C       0.68833   0.37666   0.25000
C          C       0.62334   0.31167   0.25000
H          H       0.29470   0.70530   0.25000
H          H       0.29470   0.58940   0.25000
H          H       0.41060   0.70530   0.25000
H          H       0.70530   0.29470   0.25000
H          H       0.70530   0.41060   0.25000
H          H       0.58940   0.29470   0.25000
C          C       0.28932   0.64466   0.25000
C          C       0.35534   0.64466   0.25000
C          C       0.35534   0.71068   0.25000
C          C       0.71068   0.35534   0.25000
C          C       0.64466   0.35534   0.25000
C          C       0.64466   0.28932   0.25000
C          C       0.15580   0.57790   0.25000
C          C       0.42210   0.57790   0.25000
C          C       0.42210   0.84420   0.25000
C          C       0.84420   0.42210   0.25000
C          C       0.57790   0.42210   0.25000
C          C       0.57790   0.15580   0.25000
C          C       0.37838   0.75677   0.25000
C          C       0.24323   0.62161   0.25000
C          C       0.37839   0.62162   0.25000
C          C       0.62162   0.24323   0.25000
C          C       0.75677   0.37839   0.25000
C          C       0.62161   0.37838   0.25000
N          N       0.44465   0.88930   0.25000
N          N       0.11070   0.55535   0.25000
N          N       0.44465   0.55535   0.25000
N          N       0.55535   0.11070   0.25000
N          N       0.88930   0.44465   0.25000
N          N       0.55535   0.44465   0.25000
O          O       0.49909   0.10956   0.61677
O          O       0.89044   0.38953   0.61677
O          O       0.61047   0.50091   0.61677
O          O       0.89044   0.50091   0.88323
O          O       0.61047   0.10956   0.88323
O          O       0.49909   0.38953   0.88323
O          O       0.50091   0.89044   0.88323
O          O       0.10956   0.61047   0.88323
O          O       0.38953   0.49909   0.88323
O          O       0.10956   0.49909   0.61677
O          O       0.38953   0.89044   0.61677
O          O       0.50091   0.61047   0.61677
C          C       0.57551   0.09011   0.81941
C          C       0.90989   0.48540   0.81941
C          C       0.51460   0.42449   0.81941
C          C       0.90989   0.42449   0.68059
C          C       0.51460   0.09011   0.68059
C          C       0.57551   0.48540   0.68059
C          C       0.42449   0.90989   0.68059
C          C       0.09011   0.51460   0.68059
C          C       0.48540   0.57551   0.68059
C          C       0.09011   0.57551   0.81941
C          C       0.48540   0.90989   0.81941
C          C       0.42449   0.51460   0.81941
C          C       0.49162   0.04389   0.68595
C          C       0.95611   0.44773   0.68595
C          C       0.55227   0.50838   0.68595
C          C       0.95611   0.50838   0.81404
C          C       0.55227   0.04389   0.81404
C          C       0.49162   0.44773   0.81404
C          C       0.50838   0.95611   0.81404
C          C       0.04389   0.55227   0.81404
C          C       0.44773   0.49162   0.81404
C          C       0.04389   0.49162   0.68595
C          C       0.44773   0.95611   0.68595
C          C       0.50838   0.55227   0.68595
C          C       0.45102   0.02188   0.62410
C          C       0.97812   0.42914   0.62410
C          C       0.57086   0.54898   0.62410
C          C       0.97812   0.54898   0.87590
C          C       0.57086   0.02188   0.87590
C          C       0.45102   0.42914   0.87590
C          C       0.54898   0.97812   0.87590
C          C       0.02188   0.57086   0.87590
C          C       0.42914   0.45102   0.87590
C          C       0.02188   0.45102   0.62410
C          C       0.42914   0.97812   0.62410
C          C       0.54898   0.57086   0.62410
C          C       0.22065   0.63848   0.67268
C          C       0.36152   0.58217   0.67268
C          C       0.41783   0.77935   0.67268
C          C       0.36152   0.77935   0.82732
C          C       0.41783   0.63848   0.82732
C          C       0.22065   0.58217   0.82732
C          C       0.77935   0.36152   0.82732
C          C       0.63848   0.41783   0.82732
C          C       0.58217   0.22065   0.82732
C          C       0.63848   0.22065   0.67268
C          C       0.58217   0.36152   0.67268
C          C       0.77935   0.41783   0.67268
C          C       0.17733   0.61700   0.67194
C          C       0.38300   0.56033   0.67194
C          C       0.43967   0.82267   0.67194
C          C       0.38300   0.82267   0.82806
C          C       0.43967   0.61700   0.82806
C          C       0.17733   0.56033   0.82806
C          C       0.82267   0.38300   0.82806
C          C       0.61700   0.43967   0.82806
C          C       0.56033   0.17733   0.82806
C          C       0.61700   0.17733   0.67194
C          C       0.56033   0.38300   0.67194
C          C       0.82267   0.43967   0.67194
H          H       0.43683   0.03939   0.57459
H          H       0.96061   0.39744   0.57459
H          H       0.60256   0.56317   0.57459
H          H       0.96061   0.56317   0.92541
H          H       0.60256   0.03939   0.92541
H          H       0.43683   0.39744   0.92541
H          H       0.56317   0.96061   0.92541
H          H       0.03939   0.60256   0.92541
H          H       0.39744   0.43683   0.92541
H          H       0.03939   0.43683   0.57459
H          H       0.39744   0.96061   0.57459
H          H       0.56317   0.60256   0.57459
H          H       0.23712   0.66829   0.60584
H          H       0.33171   0.56883   0.60584
H          H       0.43117   0.76288   0.60584
H          H       0.33171   0.76288   0.89416
H          H       0.43117   0.66829   0.89416
H          H       0.23712   0.56883   0.89416
H          H       0.76288   0.33171   0.89416
H          H       0.66829   0.43117   0.89416
H          H       0.56883   0.23712   0.89416
H          H       0.66829   0.23712   0.60584
H          H       0.56883   0.33171   0.60584
H          H       0.76288   0.43117   0.60584
H          H       0.16037   0.62993   0.60677
H          H       0.37007   0.53044   0.60677
H          H       0.46956   0.83963   0.60677
H          H       0.37007   0.83963   0.89323
H          H       0.46956   0.62993   0.89323
H          H       0.16037   0.53044   0.89323
H          H       0.83963   0.37007   0.89323
H          H       0.62993   0.46956   0.89323
H          H       0.53044   0.16037   0.89323
H          H       0.62993   0.16037   0.60677
H          H       0.53044   0.37007   0.60677
H          H       0.83963   0.46956   0.60677
C          C       0.51109   0.02218   0.75000
C          C       0.97782   0.48891   0.75000
C          C       0.51109   0.48891   0.75000
C          C       0.48891   0.97782   0.75000
C          C       0.02218   0.51109   0.75000
C          C       0.48891   0.51109   0.75000
C          C       0.31167   0.68833   0.75000
C          C       0.31167   0.62334   0.75000
C          C       0.37666   0.68833   0.75000
C          C       0.68833   0.31167   0.75000
C          C       0.68833   0.37666   0.75000
C          C       0.62334   0.31167   0.75000
H          H       0.29470   0.70530   0.75000
H          H       0.29470   0.58940   0.75000
H          H       0.41060   0.70530   0.75000
H          H       0.70530   0.29470   0.75000
H          H       0.70530   0.41060   0.75000
H          H       0.58940   0.29470   0.75000
C          C       0.28932   0.64466   0.75000
C          C       0.35534   0.64466   0.75000
C          C       0.35534   0.71068   0.75000
C          C       0.71068   0.35534   0.75000
C          C       0.64466   0.35534   0.75000
C          C       0.64466   0.28932   0.75000
C          C       0.15580   0.57790   0.75000
C          C       0.42210   0.57790   0.75000
C          C       0.42210   0.84420   0.75000
C          C       0.84420   0.42210   0.75000
C          C       0.57790   0.42210   0.75000
C          C       0.57790   0.15580   0.75000
C          C       0.37838   0.75677   0.75000
C          C       0.24323   0.62161   0.75000
C          C       0.37839   0.62162   0.75000
C          C       0.62162   0.24323   0.75000
C          C       0.75677   0.37839   0.75000
C          C       0.62161   0.37838   0.75000
N          N       0.44465   0.88930   0.75000
N          N       0.11070   0.55535   0.75000
N          N       0.44465   0.55535   0.75000
N          N       0.55535   0.11070   0.75000
N          N       0.88930   0.44465   0.75000
N          N       0.55535   0.44465   0.75000
