data_crystal

_cell_length_a    31.36900
_cell_length_b    31.36900
_cell_length_c    7.82000
_cell_angle_alpha 90.00000
_cell_angle_beta  90.00000
_cell_angle_gamma 120.00000

_space_group_name_Hall 'P 1'
_space_group_name_H-M_alt  'P 1'

loop_
_symmetry_equiv_pos_as_xyz
'x,y,z'

loop_
_atom_site_label
_atom_site_type_symbol
_atom_site_fract_x
_atom_site_fract_y
_atom_site_fract_z
C          C       0.04321   0.49928   0.00256
C          C       0.50072   0.54393   0.00256
C          C       0.45607   0.95679   0.00256
C          C       0.95679   0.50072   0.00256
C          C       0.49928   0.45607   0.00256
C          C       0.54393   0.04321   0.00256
C          C       0.49928   0.04321   0.49744
C          C       0.54393   0.50072   0.49744
C          C       0.95679   0.45607   0.49744
C          C       0.50072   0.95679   0.49744
C          C       0.45607   0.49928   0.49744
C          C       0.04321   0.54393   0.49744
C          C       0.09520   0.51034   0.01227
C          C       0.48966   0.58486   0.01227
C          C       0.41514   0.90480   0.01227
C          C       0.90480   0.48966   0.01227
C          C       0.51034   0.41514   0.01227
C          C       0.58486   0.09520   0.01227
C          C       0.51034   0.09520   0.48773
C          C       0.58486   0.48966   0.48773
C          C       0.90480   0.41514   0.48773
C          C       0.48966   0.90480   0.48773
C          C       0.41514   0.51034   0.48773
C          C       0.09520   0.58486   0.48773
C          C       0.34010   0.59425   0.07941
C          C       0.40575   0.74585   0.07941
C          C       0.25415   0.65990   0.07941
C          C       0.65990   0.40575   0.07941
C          C       0.59425   0.25415   0.07941
C          C       0.74585   0.34010   0.07941
C          C       0.59425   0.34010   0.42059
C          C       0.74585   0.40575   0.42059
C          C       0.65990   0.25415   0.42059
C          C       0.40575   0.65990   0.42059
C          C       0.25415   0.59425   0.42059
C          C       0.34010   0.74585   0.42059
C          C       0.36539   0.56843   0.07954
C          C       0.43157   0.79696   0.07954
C          C       0.20304   0.63461   0.07954
C          C       0.63461   0.43157   0.07954
C          C       0.56843   0.20304   0.07954
C          C       0.79696   0.36539   0.07954
C          C       0.56843   0.36539   0.42046
C          C       0.79696   0.43157   0.42046
C          C       0.63461   0.20304   0.42046
C          C       0.43157   0.63461   0.42046
C          C       0.20304   0.56843   0.42046
C          C       0.36539   0.79696   0.42046
O          O       0.11009   0.48141   0.03172
O          O       0.51859   0.62868   0.03172
O          O       0.37132   0.88991   0.03172
O          O       0.88991   0.51859   0.03172
O          O       0.48141   0.37132   0.03172
O          O       0.62868   0.11009   0.03172
O          O       0.48141   0.11009   0.46829
O          O       0.62868   0.51859   0.46829
O          O       0.88991   0.37132   0.46829
O          O       0.51859   0.88991   0.46829
O          O       0.37132   0.48141   0.46829
O          O       0.11009   0.62868   0.46829
H          H       0.30458   0.57806   0.14271
H          H       0.42194   0.72652   0.14271
H          H       0.27348   0.69542   0.14271
H          H       0.69542   0.42194   0.14271
H          H       0.57806   0.27348   0.14271
H          H       0.72652   0.30458   0.14271
H          H       0.57806   0.30458   0.35729
H          H       0.72652   0.42194   0.35729
H          H       0.69542   0.27348   0.35729
H          H       0.42194   0.69542   0.35729
H          H       0.27348   0.57806   0.35729
H          H       0.30458   0.72652   0.35729
H          H       0.34956   0.53304   0.14412
H          H       0.46696   0.81652   0.14412
H          H       0.18348   0.65044   0.14412
H          H       0.65044   0.46696   0.14412
H          H       0.53304   0.18348   0.14412
H          H       0.81652   0.34956   0.14412
H          H       0.53304   0.34956   0.35588
H          H       0.81652   0.46696   0.35588
H          H       0.65044   0.18348   0.35588
H          H       0.46696   0.65044   0.35588
H          H       0.18348   0.53304   0.35588
H          H       0.34956   0.81652   0.35588
C          C       0.00000   0.54628   0.00000
C          C       0.45372   0.45372   0.00000
C          C       0.54628   0.00000   0.00000
C          C       1.00000   0.45372   0.00000
C          C       0.54628   0.54628   0.00000
C          C       0.45372   0.00000   0.00000
H          H       1.00000   0.58103   0.00000
H          H       0.41897   0.41897   0.00000
H          H       0.58103   0.00000   0.00000
H          H       0.00000   0.41897   0.00000
H          H       0.58103   0.58103   0.00000
H          H       0.41897   0.00000   0.00000
C          C       0.28096   0.64048   0.00000
C          C       0.35952   0.64048   0.00000
C          C       0.35952   0.71904   0.00000
C          C       0.71904   0.35952   0.00000
C          C       0.64048   0.35952   0.00000
C          C       0.64048   0.28096   0.00000
N          N       0.12482   0.56241   0.00000
N          N       0.43759   0.56241   0.00000
N          N       0.43759   0.87518   0.00000
N          N       0.87518   0.43759   0.00000
N          N       0.56241   0.43759   0.00000
N          N       0.56241   0.12482   0.00000
C          C       0.41147   0.58853   0.00000
C          C       0.41147   0.82294   0.00000
C          C       0.17706   0.58853   0.00000
C          C       0.58853   0.41147   0.00000
C          C       0.58853   0.17706   0.00000
C          C       0.82294   0.41147   0.00000
N          N       0.33333   0.66667   0.00000
N          N       0.66667   0.33333   0.00000
C          C       0.04321   0.49928   0.50256
C          C       0.50072   0.54393   0.50256
C          C       0.45607   0.95679   0.50256
C          C       0.95679   0.50072   0.50256
C          C       0.49928   0.45607   0.50256
C          C       0.54393   0.04321   0.50256
C          C       0.49928   0.04321   0.99744
C          C       0.54393   0.50072   0.99744
C          C       0.95679   0.45607   0.99744
C          C       0.50072   0.95679   0.99744
C          C       0.45607   0.49928   0.99744
C          C       0.04321   0.54393   0.99744
C          C       0.09520   0.51034   0.51228
C          C       0.48966   0.58486   0.51228
C          C       0.41514   0.90480   0.51228
C          C       0.90480   0.48966   0.51228
C          C       0.51034   0.41514   0.51228
C          C       0.58486   0.09520   0.51228
C          C       0.51034   0.09520   0.98773
C          C       0.58486   0.48966   0.98773
C          C       0.90480   0.41514   0.98773
C          C       0.48966   0.90480   0.98773
C          C       0.41514   0.51034   0.98773
C          C       0.09520   0.58486   0.98773
C          C       0.34010   0.59425   0.57941
C          C       0.40575   0.74585   0.57941
C          C       0.25415   0.65990   0.57941
C          C       0.65990   0.40575   0.57941
C          C       0.59425   0.25415   0.57941
C          C       0.74585   0.34010   0.57941
C          C       0.59425   0.34010   0.92059
C          C       0.74585   0.40575   0.92059
C          C       0.65990   0.25415   0.92059
C          C       0.40575   0.65990   0.92059
C          C       0.25415   0.59425   0.92059
C          C       0.34010   0.74585   0.92059
C          C       0.36539   0.56843   0.57954
C          C       0.43157   0.79696   0.57954
C          C       0.20304   0.63461   0.57954
C          C       0.63461   0.43157   0.57954
C          C       0.56843   0.20304   0.57954
C          C       0.79696   0.36539   0.57954
C          C       0.56843   0.36539   0.92046
C          C       0.79696   0.43157   0.92046
C          C       0.63461   0.20304   0.92046
C          C       0.43157   0.63461   0.92046
C          C       0.20304   0.56843   0.92046
C          C       0.36539   0.79696   0.92046
O          O       0.11009   0.48141   0.53172
O          O       0.51859   0.62868   0.53172
O          O       0.37132   0.88991   0.53172
O          O       0.88991   0.51859   0.53172
O          O       0.48141   0.37132   0.53172
O          O       0.62868   0.11009   0.53172
O          O       0.48141   0.11009   0.96829
O          O       0.62868   0.51859   0.96829
O          O       0.88991   0.37132   0.96829
O          O       0.51859   0.88991   0.96829
O          O       0.37132   0.48141   0.96829
O          O       0.11009   0.62868   0.96829
H          H       0.30458   0.57806   0.64271
H          H       0.42194   0.72652   0.64271
H          H       0.27348   0.69542   0.64271
H          H       0.69542   0.42194   0.64271
H          H       0.57806   0.27348   0.64271
H          H       0.72652   0.30458   0.64271
H          H       0.57806   0.30458   0.85729
H          H       0.72652   0.42194   0.85729
H          H       0.69542   0.27348   0.85729
H          H       0.42194   0.69542   0.85729
H          H       0.27348   0.57806   0.85729
H          H       0.30458   0.72652   0.85729
H          H       0.34956   0.53304   0.64412
H          H       0.46696   0.81652   0.64412
H          H       0.18348   0.65044   0.64412
H          H       0.65044   0.46696   0.64412
H          H       0.53304   0.18348   0.64412
H          H       0.81652   0.34956   0.64412
H          H       0.53304   0.34956   0.85588
H          H       0.81652   0.46696   0.85588
H          H       0.65044   0.18348   0.85588
H          H       0.46696   0.65044   0.85588
H          H       0.18348   0.53304   0.85588
H          H       0.34956   0.81652   0.85588
C          C       0.00000   0.54628   0.50000
C          C       0.45372   0.45372   0.50000
C          C       0.54628   0.00000   0.50000
C          C       1.00000   0.45372   0.50000
C          C       0.54628   0.54628   0.50000
C          C       0.45372   0.00000   0.50000
H          H       1.00000   0.58103   0.50000
H          H       0.41897   0.41897   0.50000
H          H       0.58103   0.00000   0.50000
H          H       0.00000   0.41897   0.50000
H          H       0.58103   0.58103   0.50000
H          H       0.41897   0.00000   0.50000
C          C       0.28096   0.64048   0.50000
C          C       0.35952   0.64048   0.50000
C          C       0.35952   0.71904   0.50000
C          C       0.71904   0.35952   0.50000
C          C       0.64048   0.35952   0.50000
C          C       0.64048   0.28096   0.50000
N          N       0.12482   0.56241   0.50000
N          N       0.43759   0.56241   0.50000
N          N       0.43759   0.87518   0.50000
N          N       0.87518   0.43759   0.50000
N          N       0.56241   0.43759   0.50000
N          N       0.56241   0.12482   0.50000
C          C       0.41147   0.58853   0.50000
C          C       0.41147   0.82294   0.50000
C          C       0.17706   0.58853   0.50000
C          C       0.58853   0.41147   0.50000
C          C       0.58853   0.17706   0.50000
C          C       0.82294   0.41147   0.50000
N          N       0.33333   0.66667   0.50000
N          N       0.66667   0.33333   0.50000
