data_crystal

_cell_length_a    31.94500
_cell_length_b    31.94500
_cell_length_c    7.80200
_cell_angle_alpha 90.00000
_cell_angle_beta  90.00000
_cell_angle_gamma 120.00000

_space_group_name_Hall 'P 1'
_space_group_name_H-M_alt  'P 1'

loop_
_symmetry_equiv_pos_as_xyz
 'x,y,z'

loop_
_atom_site_label
_atom_site_type_symbol
_atom_site_fract_x
_atom_site_fract_y
_atom_site_fract_z
O          O       0.49396   0.12570   0.34237
O          O       0.87430   0.36826   0.34237
O          O       0.63174   0.50604   0.34237
O          O       0.50604   0.87430   0.34237
O          O       0.12570   0.63174   0.34237
O          O       0.36826   0.49396   0.34237
O          O       0.12570   0.49396   0.15763
O          O       0.36826   0.87430   0.15763
O          O       0.50604   0.63174   0.15763
O          O       0.87430   0.50604   0.15763
O          O       0.63174   0.12570   0.15763
O          O       0.49396   0.36826   0.15763
C          C       0.58996   0.10381   0.21123
C          C       0.89619   0.48615   0.21123
C          C       0.51385   0.41004   0.21123
C          C       0.41004   0.89619   0.21123
C          C       0.10381   0.51385   0.21123
C          C       0.48615   0.58996   0.21123
C          C       0.10381   0.58996   0.28877
C          C       0.48615   0.89619   0.28877
C          C       0.41004   0.51385   0.28877
C          C       0.89619   0.41004   0.28877
C          C       0.51385   0.10381   0.28877
C          C       0.58996   0.48615   0.28877
C          C       0.48697   0.05078   0.26224
C          C       0.94922   0.43619   0.26224
C          C       0.56381   0.51303   0.26224
C          C       0.51303   0.94922   0.26224
C          C       0.05078   0.56381   0.26224
C          C       0.43619   0.48697   0.26224
C          C       0.05078   0.48697   0.23776
C          C       0.43619   0.94922   0.23776
C          C       0.51303   0.56381   0.23776
C          C       0.94922   0.51303   0.23776
C          C       0.56381   0.05078   0.23776
C          C       0.48697   0.43619   0.23776
C          C       0.43669   0.02527   0.25967
C          C       0.97473   0.41142   0.25967
C          C       0.58858   0.56331   0.25967
C          C       0.56331   0.97473   0.25967
C          C       0.02527   0.58858   0.25967
C          C       0.41142   0.43669   0.25967
C          C       0.02527   0.43669   0.24033
C          C       0.41142   0.97473   0.24033
C          C       0.56331   0.58858   0.24033
C          C       0.97473   0.56331   0.24033
C          C       0.58858   0.02527   0.24033
C          C       0.43669   0.41142   0.24033
C          C       0.25565   0.65976   0.16829
C          C       0.34024   0.59589   0.16829
C          C       0.40411   0.74435   0.16829
C          C       0.74435   0.34024   0.16829
C          C       0.65976   0.40411   0.16829
C          C       0.59589   0.25565   0.16829
C          C       0.65976   0.25565   0.33171
C          C       0.59589   0.34024   0.33171
C          C       0.74435   0.40411   0.33171
C          C       0.34024   0.74435   0.33171
C          C       0.40411   0.65976   0.33171
C          C       0.25565   0.59589   0.33171
C          C       0.20546   0.63461   0.16673
C          C       0.36539   0.57085   0.16673
C          C       0.42915   0.79454   0.16673
C          C       0.79454   0.36539   0.16673
C          C       0.63461   0.42915   0.16673
C          C       0.57085   0.20546   0.16673
C          C       0.63461   0.20546   0.33327
C          C       0.57085   0.36539   0.33327
C          C       0.79454   0.42915   0.33327
C          C       0.36539   0.79454   0.33327
C          C       0.42915   0.63461   0.33327
C          C       0.20546   0.57085   0.33327
H          H       0.41751   0.04537   0.27083
H          H       0.95463   0.37214   0.27083
H          H       0.62786   0.58249   0.27083
H          H       0.58249   0.95463   0.27083
H          H       0.04537   0.62786   0.27083
H          H       0.37214   0.41751   0.27083
H          H       0.04537   0.41751   0.22917
H          H       0.37214   0.95463   0.22917
H          H       0.58249   0.62786   0.22917
H          H       0.95463   0.58249   0.22917
H          H       0.62786   0.04537   0.22917
H          H       0.41751   0.37214   0.22917
H          H       0.27465   0.69446   0.10363
H          H       0.30554   0.58019   0.10363
H          H       0.41981   0.72535   0.10363
H          H       0.72535   0.30554   0.10363
H          H       0.69446   0.41981   0.10363
H          H       0.58019   0.27465   0.10363
H          H       0.69446   0.27465   0.39638
H          H       0.58019   0.30554   0.39638
H          H       0.72535   0.41981   0.39638
H          H       0.30554   0.72535   0.39638
H          H       0.41981   0.69446   0.39638
H          H       0.27465   0.58019   0.39638
H          H       0.18623   0.64935   0.09694
H          H       0.35065   0.53688   0.09694
H          H       0.46312   0.81377   0.09694
H          H       0.81377   0.35065   0.09694
H          H       0.64935   0.46312   0.09694
H          H       0.53688   0.18623   0.09694
H          H       0.64935   0.18623   0.40306
H          H       0.53688   0.35065   0.40306
H          H       0.81377   0.46312   0.40306
H          H       0.35065   0.81377   0.40306
H          H       0.46312   0.64935   0.40306
H          H       0.18623   0.53688   0.40306
C          C       0.51284   0.02568   0.25000
C          C       0.97432   0.48716   0.25000
C          C       0.51284   0.48716   0.25000
C          C       0.48716   0.97432   0.25000
C          C       0.02568   0.51284   0.25000
C          C       0.48716   0.51284   0.25000
C          C       0.35903   0.71806   0.25000
C          C       0.28194   0.64097   0.25000
C          C       0.35903   0.64097   0.25000
C          C       0.64097   0.28194   0.25000
C          C       0.71806   0.35903   0.25000
C          C       0.64097   0.35903   0.25000
N          N       0.43599   0.87198   0.25000
N          N       0.12802   0.56401   0.25000
N          N       0.43599   0.56401   0.25000
N          N       0.56401   0.12802   0.25000
N          N       0.87198   0.43599   0.25000
N          N       0.56401   0.43599   0.25000
C          C       0.18010   0.59005   0.25000
C          C       0.40995   0.59005   0.25000
C          C       0.40995   0.81990   0.25000
C          C       0.81990   0.40995   0.25000
C          C       0.59005   0.40995   0.25000
C          C       0.59005   0.18010   0.25000
N          N       0.33333   0.66667   0.25000
N          N       0.66667   0.33333   0.25000
O          O       0.49396   0.12570   0.84237
O          O       0.87430   0.36826   0.84237
O          O       0.63174   0.50604   0.84237
O          O       0.50604   0.87430   0.84237
O          O       0.12570   0.63174   0.84237
O          O       0.36826   0.49396   0.84237
O          O       0.12570   0.49396   0.65763
O          O       0.36826   0.87430   0.65763
O          O       0.50604   0.63174   0.65763
O          O       0.87430   0.50604   0.65763
O          O       0.63174   0.12570   0.65763
O          O       0.49396   0.36826   0.65763
C          C       0.58996   0.10381   0.71123
C          C       0.89619   0.48615   0.71123
C          C       0.51385   0.41004   0.71123
C          C       0.41004   0.89619   0.71123
C          C       0.10381   0.51385   0.71123
C          C       0.48615   0.58996   0.71123
C          C       0.10381   0.58996   0.78877
C          C       0.48615   0.89619   0.78877
C          C       0.41004   0.51385   0.78877
C          C       0.89619   0.41004   0.78877
C          C       0.51385   0.10381   0.78877
C          C       0.58996   0.48615   0.78877
C          C       0.48697   0.05078   0.76224
C          C       0.94922   0.43619   0.76224
C          C       0.56381   0.51303   0.76224
C          C       0.51303   0.94922   0.76224
C          C       0.05078   0.56381   0.76224
C          C       0.43619   0.48697   0.76224
C          C       0.05078   0.48697   0.73776
C          C       0.43619   0.94922   0.73776
C          C       0.51303   0.56381   0.73776
C          C       0.94922   0.51303   0.73776
C          C       0.56381   0.05078   0.73776
C          C       0.48697   0.43619   0.73776
C          C       0.43669   0.02527   0.75967
C          C       0.97473   0.41142   0.75967
C          C       0.58858   0.56331   0.75967
C          C       0.56331   0.97473   0.75967
C          C       0.02527   0.58858   0.75967
C          C       0.41142   0.43669   0.75967
C          C       0.02527   0.43669   0.74033
C          C       0.41142   0.97473   0.74033
C          C       0.56331   0.58858   0.74033
C          C       0.97473   0.56331   0.74033
C          C       0.58858   0.02527   0.74033
C          C       0.43669   0.41142   0.74033
C          C       0.25565   0.65976   0.66829
C          C       0.34024   0.59589   0.66829
C          C       0.40411   0.74435   0.66829
C          C       0.74435   0.34024   0.66829
C          C       0.65976   0.40411   0.66829
C          C       0.59589   0.25565   0.66829
C          C       0.65976   0.25565   0.83171
C          C       0.59589   0.34024   0.83171
C          C       0.74435   0.40411   0.83171
C          C       0.34024   0.74435   0.83171
C          C       0.40411   0.65976   0.83171
C          C       0.25565   0.59589   0.83171
C          C       0.20546   0.63461   0.66673
C          C       0.36539   0.57085   0.66673
C          C       0.42915   0.79454   0.66673
C          C       0.79454   0.36539   0.66673
C          C       0.63461   0.42915   0.66673
C          C       0.57085   0.20546   0.66673
C          C       0.63461   0.20546   0.83327
C          C       0.57085   0.36539   0.83327
C          C       0.79454   0.42915   0.83327
C          C       0.36539   0.79454   0.83327
C          C       0.42915   0.63461   0.83327
C          C       0.20546   0.57085   0.83327
H          H       0.41751   0.04537   0.77083
H          H       0.95463   0.37214   0.77083
H          H       0.62786   0.58249   0.77083
H          H       0.58249   0.95463   0.77083
H          H       0.04537   0.62786   0.77083
H          H       0.37214   0.41751   0.77083
H          H       0.04537   0.41751   0.72917
H          H       0.37214   0.95463   0.72917
H          H       0.58249   0.62786   0.72917
H          H       0.95463   0.58249   0.72917
H          H       0.62786   0.04537   0.72917
H          H       0.41751   0.37214   0.72917
H          H       0.27465   0.69446   0.60362
H          H       0.30554   0.58019   0.60362
H          H       0.41981   0.72535   0.60362
H          H       0.72535   0.30554   0.60362
H          H       0.69446   0.41981   0.60362
H          H       0.58019   0.27465   0.60362
H          H       0.69446   0.27465   0.89638
H          H       0.58019   0.30554   0.89638
H          H       0.72535   0.41981   0.89638
H          H       0.30554   0.72535   0.89638
H          H       0.41981   0.69446   0.89638
H          H       0.27465   0.58019   0.89638
H          H       0.18623   0.64935   0.59694
H          H       0.35065   0.53688   0.59694
H          H       0.46312   0.81377   0.59694
H          H       0.81377   0.35065   0.59694
H          H       0.64935   0.46312   0.59694
H          H       0.53688   0.18623   0.59694
H          H       0.64935   0.18623   0.90306
H          H       0.53688   0.35065   0.90306
H          H       0.81377   0.46312   0.90306
H          H       0.35065   0.81377   0.90306
H          H       0.46312   0.64935   0.90306
H          H       0.18623   0.53688   0.90306
C          C       0.51284   0.02568   0.75000
C          C       0.97432   0.48716   0.75000
C          C       0.51284   0.48716   0.75000
C          C       0.48716   0.97432   0.75000
C          C       0.02568   0.51284   0.75000
C          C       0.48716   0.51284   0.75000
C          C       0.35903   0.71806   0.75000
C          C       0.28194   0.64097   0.75000
C          C       0.35903   0.64097   0.75000
C          C       0.64097   0.28194   0.75000
C          C       0.71806   0.35903   0.75000
C          C       0.64097   0.35903   0.75000
N          N       0.43599   0.87198   0.75000
N          N       0.12802   0.56401   0.75000
N          N       0.43599   0.56401   0.75000
N          N       0.56401   0.12802   0.75000
N          N       0.87198   0.43599   0.75000
N          N       0.56401   0.43599   0.75000
C          C       0.18010   0.59005   0.75000
C          C       0.40995   0.59005   0.75000
C          C       0.40995   0.81990   0.75000
C          C       0.81990   0.40995   0.75000
C          C       0.59005   0.40995   0.75000
C          C       0.59005   0.18010   0.75000
N          N       0.33333   0.66667   0.75000
N          N       0.66667   0.33333   0.75000
