data_crystal

_cell_length_a    12.74400
_cell_length_b    7.59500
_cell_length_c    26.28700
_cell_angle_alpha 90.00000
_cell_angle_beta  90.00000
_cell_angle_gamma 90.00000

_symmetry_space_group_name_Hall 'P 1'
_symmetry_space_group_name_H-M  'P 1'

loop_
_symmetry_equiv_pos_as_xyz
 'x,y,z'

loop_
_atom_site_label
_atom_site_type_symbol
_atom_site_fract_x
_atom_site_fract_y
_atom_site_fract_z
C          C       0.88191   0.35114   0.24566
C          C       0.88191   0.64886   0.74566
C          C       0.77370   0.32499   0.22994
C          C       0.77370   0.67501   0.72994
N          N       0.77872   0.94854   0.13881
N          N       0.77872   0.05146   0.63881
C          C       0.95496   0.23843   0.22497
C          C       0.95496   0.76157   0.72497
C          C       0.81455   0.08591   0.17371
C          C       0.81455   0.91409   0.67371
C          C       0.92169   0.10916   0.18933
C          C       0.92169   0.89084   0.68933
C          C       0.74095   0.19499   0.19392
C          C       0.74095   0.80501   0.69392
C          C       0.01480   0.59270   0.27472
C          C       0.01480   0.40730   0.77472
C          C       0.07813   0.68690   0.31261
C          C       0.07813   0.31310   0.81261
C          C       0.16785   0.84133   0.24840
C          C       0.16785   0.15867   0.74840
C          C       0.03022   0.62655   0.22307
C          C       0.03022   0.37345   0.72307
C          C       0.15515   0.80630   0.29964
C          C       0.15515   0.19370   0.79964
N          N       0.23713   0.98234   0.23619
N          N       0.23713   0.01766   0.73619
C          C       0.10694   0.74539   0.21024
C          C       0.10694   0.25461   0.71024
C          C       0.95545   0.34511   0.33393
C          C       0.95545   0.65489   0.83393
C          C       0.06083   0.29065   0.34724
C          C       0.06083   0.70935   0.84724
N          N       0.02120   0.90546   0.43390
N          N       0.02120   0.09454   0.93390
C          C       0.87559   0.25268   0.35628
C          C       0.87559   0.74732   0.85628
C          C       0.00260   0.06039   0.40282
C          C       0.00260   0.93961   0.90282
C          C       0.89925   0.11809   0.39156
C          C       0.89925   0.88191   0.89156
C          C       0.08412   0.15104   0.38153
C          C       0.08412   0.84896   0.88153
C          C       0.83801   0.61062   0.30424
C          C       0.83801   0.38938   0.80424
C          C       0.78525   0.72181   0.26668
C          C       0.78525   0.27819   0.76668
C          C       0.69590   0.87668   0.33116
C          C       0.69590   0.12332   0.83116
C          C       0.81790   0.63899   0.35544
C          C       0.81790   0.36101   0.85544
C          C       0.71386   0.85124   0.27980
C          C       0.71386   0.14876   0.77980
N          N       0.63664   0.02201   0.34882
N          N       0.63664   0.97799   0.84882
C          C       0.74559   0.76472   0.36817
C          C       0.74559   0.23528   0.86817
C          C       0.92257   0.47643   0.28975
C          C       0.92257   0.52357   0.78975
C          C       0.84874   0.16527   0.61313
C          C       0.84874   0.83473   0.11313
C          C       0.21999   0.92243   0.69498
C          C       0.21999   0.07757   0.19498
C          C       0.12585   0.83430   0.44906
C          C       0.12585   0.16570   0.94906
C          C       0.59939   0.15932   0.32345
C          C       0.59939   0.84068   0.82345
C          C       0.24005   0.63882   0.65169
C          C       0.24005   0.36118   0.15169
C          C       0.45354   0.61448   0.68668
C          C       0.45354   0.38552   0.18668
C          C       0.29936   0.49584   0.63793
C          C       0.29936   0.50416   0.13793
C          C       0.40675   0.48058   0.65531
C          C       0.40675   0.51942   0.15531
C          C       0.39342   0.75664   0.70207
C          C       0.39342   0.24336   0.20207
C          C       0.28610   0.77042   0.68394
C          C       0.28610   0.22958   0.18394
C          C       0.22389   0.59308   0.49617
C          C       0.22389   0.40692   0.99617
C          C       0.04705   0.37748   0.49226
C          C       0.04705   0.62252   0.99226
C          C       0.23425   0.41984   0.51300
C          C       0.23425   0.58016   0.01300
C          C       0.14557   0.30893   0.51097
C          C       0.14557   0.69107   0.01097
C          C       0.03675   0.55151   0.47504
C          C       0.03675   0.44849   0.97504
C          C       0.12634   0.65870   0.47522
C          C       0.12634   0.34130   0.97522
C          C       0.53795   0.29298   0.40287
C          C       0.53795   0.70702   0.90287
C          C       0.47377   0.59937   0.34984
C          C       0.47377   0.40063   0.84984
C          C       0.48805   0.42706   0.42762
C          C       0.48805   0.57294   0.92762
C          C       0.45690   0.58166   0.40155
C          C       0.45690   0.41834   0.90155
C          C       0.52048   0.46200   0.32455
C          C       0.52048   0.53800   0.82455
C          C       0.55124   0.30558   0.35054
C          C       0.55124   0.69442   0.85054
C          C       0.73276   0.43824   0.49973
C          C       0.73276   0.56176   0.99973
C          C       0.73627   0.43825   0.60620
C          C       0.73627   0.56175   0.10620
C          C       0.78198   0.30092   0.52839
C          C       0.78198   0.69908   0.02839
C          C       0.78661   0.30250   0.58192
C          C       0.78661   0.69750   0.08192
C          C       0.68565   0.57464   0.57743
C          C       0.68565   0.42536   0.07743
C          C       0.68686   0.57850   0.52398
C          C       0.68686   0.42150   0.02398
C          C       0.33965   0.06046   0.54836
C          C       0.33965   0.93954   0.04836
C          C       0.54064   0.96144   0.52143
C          C       0.54064   0.03856   0.02143
C          C       0.35429   0.00891   0.49828
C          C       0.35429   0.99109   0.99828
C          C       0.45196   0.95339   0.48448
C          C       0.45196   0.04661   0.98448
C          C       0.52913   0.03748   0.56940
C          C       0.52913   0.96252   0.06940
C          C       0.43023   0.08880   0.58368
C          C       0.43023   0.91120   0.08368
O          O       0.63645   0.71130   0.49334
O          O       0.63645   0.28870   0.99334
C          C       0.64695   0.88989   0.51096
C          C       0.64695   0.11011   0.01096
C          C       0.45558   0.88079   0.43085
C          C       0.45558   0.11921   0.93085
O          O       0.40496   0.71245   0.42702
O          O       0.40496   0.28755   0.92702
C          C       0.42744   0.16729   0.63686
C          C       0.42744   0.83271   0.13686
O          O       0.47041   0.34295   0.63923
O          O       0.47041   0.65705   0.13923
C          C       0.22718   0.06697   0.56283
C          C       0.22718   0.93303   0.06283
O          O       0.15153   0.12801   0.52256
O          O       0.15153   0.87199   0.02256
H          H       0.71372   0.40016   0.24637
H          H       0.71372   0.59984   0.74637
H          H       0.03846   0.24895   0.23727
H          H       0.03846   0.75105   0.73727
H          H       0.97925   0.02435   0.17477
H          H       0.97925   0.97565   0.67477
H          H       0.65771   0.17489   0.18278
H          H       0.65771   0.82511   0.68278
H          H       0.06628   0.66880   0.35237
H          H       0.06628   0.33120   0.85237
H          H       0.98087   0.56642   0.19191
H          H       0.98087   0.43358   0.69191
H          H       0.20224   0.87750   0.32943
H          H       0.20224   0.12250   0.82943
H          H       0.11603   0.76531   0.17020
H          H       0.11603   0.23469   0.67020
H          H       0.12536   0.34901   0.32953
H          H       0.12536   0.65099   0.82953
H          H       0.79379   0.28577   0.34613
H          H       0.79379   0.71423   0.84613
H          H       0.83630   0.05601   0.40951
H          H       0.83630   0.94399   0.90951
H          H       0.16568   0.11261   0.39022
H          H       0.16568   0.88739   0.89022
H          H       0.80010   0.70902   0.22708
H          H       0.80010   0.29098   0.72708
H          H       0.85948   0.56783   0.38660
H          H       0.85948   0.43217   0.88660
H          H       0.67381   0.93061   0.24984
H          H       0.67381   0.06939   0.74984
H          H       0.73331   0.78241   0.40795
H          H       0.73331   0.21759   0.90795
H          H       0.89660   0.08378   0.58899
H          H       0.89660   0.91622   0.08899
H          H       0.15039   0.94433   0.66873
H          H       0.15039   0.05567   0.16873
H          H       0.17083   0.82101   0.41538
H          H       0.17083   0.17899   0.91538
H          H       0.60900   0.17403   0.28335
H          H       0.60900   0.82597   0.78335
H          H       0.15761   0.64685   0.63678
H          H       0.15761   0.35315   0.13678
H          H       0.53666   0.60695   0.69943
H          H       0.53666   0.39305   0.19943
H          H       0.26129   0.40083   0.61255
H          H       0.26129   0.59917   0.11255
H          H       0.43113   0.85755   0.72667
H          H       0.43113   0.14245   0.22667
H          H       0.29350   0.67418   0.49818
H          H       0.29350   0.32582   0.99818
H          H       0.02145   0.29346   0.48984
H          H       0.02145   0.70654   0.98984
H          H       0.31241   0.37545   0.52635
H          H       0.31241   0.62455   0.02635
H          H       0.04019   0.59993   0.46064
H          H       0.04019   0.40007   0.96064
H          H       0.56718   0.18054   0.42495
H          H       0.56718   0.81946   0.92495
H          H       0.44961   0.71840   0.32913
H          H       0.44961   0.28160   0.82913
H          H       0.47596   0.41256   0.46759
H          H       0.47596   0.58744   0.96759
H          H       0.53356   0.47903   0.28495
H          H       0.53356   0.52097   0.78495
H          H       0.73150   0.43681   0.45848
H          H       0.73150   0.56319   0.95848
H          H       0.73662   0.43867   0.64733
H          H       0.73662   0.56133   0.14733
H          H       0.81709   0.19401   0.50882
H          H       0.81709   0.80599   0.00882
H          H       0.64512   0.67606   0.59668
H          H       0.64512   0.32394   0.09668
H          H       0.28835   0.00768   0.46946
H          H       0.28835   0.99232   0.96946
H          H       0.59723   0.05181   0.59689
H          H       0.59723   0.94819   0.09689
H          H       0.70638   0.90345   0.54481
H          H       0.70638   0.09655   0.04481
H          H       0.67724   0.97027   0.48040
H          H       0.67724   0.02973   0.98040
H          H       0.53749   0.87414   0.42031
H          H       0.53749   0.12586   0.92031
H          H       0.41199   0.97156   0.40300
H          H       0.41199   0.02844   0.90300
H          H       0.47840   0.08502   0.66424
H          H       0.47840   0.91498   0.16424
H          H       0.34944   0.15998   0.65137
H          H       0.34944   0.84002   0.15137
H          H       0.21583   0.13748   0.59821
H          H       0.21583   0.86252   0.09821
H          H       0.20587   0.92859   0.57071
H          H       0.20587   0.07141   0.07071
