data_crystal

_cell_length_a    13.91000
_cell_length_b    8.65100
_cell_length_c    26.19900
_cell_angle_alpha 90.00000
_cell_angle_beta  90.87400
_cell_angle_gamma 90.00000

_space_group_name_Hall 'P 1'
_space_group_name_H-M_alt  'P 1'

loop_
_symmetry_equiv_pos_as_xyz
'x,y,z'

loop_
_atom_site_label
_atom_site_type_symbol
_atom_site_fract_x
_atom_site_fract_y
_atom_site_fract_z
C          C       0.87552   0.39566   0.24815
C          C       0.87552   0.60434   0.74815
C          C       0.77520   0.37556   0.25293
C          C       0.77520   0.62444   0.75293
N          N       0.72546   0.00869   0.18067
N          N       0.72546   0.99131   0.68067
C          C       0.92332   0.29286   0.21500
C          C       0.92332   0.70714   0.71500
C          C       0.77672   0.14363   0.19953
C          C       0.77672   0.85637   0.69953
C          C       0.87513   0.16880   0.19141
C          C       0.87513   0.83120   0.69141
C          C       0.72698   0.25203   0.22889
C          C       0.72698   0.74797   0.72889
C          C       0.00409   0.61177   0.25374
C          C       0.00409   0.38823   0.75374
C          C       0.07657   0.69504   0.28009
C          C       0.07657   0.30496   0.78009
C          C       0.10231   0.86511   0.20728
C          C       0.10231   0.13489   0.70728
C          C       0.98440   0.65548   0.20250
C          C       0.98440   0.34452   0.70250
C          C       0.12594   0.81677   0.25681
C          C       0.12594   0.18323   0.75681
N          N       0.14802   0.00359   0.18815
N          N       0.14802   0.99641   0.68815
C          C       0.03281   0.77993   0.17956
C          C       0.03281   0.22007   0.67956
C          C       0.99337   0.38182   0.31791
C          C       0.99337   0.61818   0.81791
C          C       0.08889   0.33610   0.30735
C          C       0.08889   0.66390   0.80735
N          N       0.11291   0.96388   0.38426
N          N       0.11291   0.03612   0.88426
C          C       0.94253   0.28840   0.35263
C          C       0.94253   0.71160   0.85263
C          C       0.07773   0.11034   0.36387
C          C       0.07773   0.88966   0.86387
C          C       0.98399   0.15663   0.37528
C          C       0.98399   0.84337   0.87528
C          C       0.13042   0.20375   0.33001
C          C       0.13042   0.79625   0.83001
C          C       0.87502   0.61788   0.31633
C          C       0.87502   0.38212   0.81633
C          C       0.81253   0.72341   0.29107
C          C       0.81253   0.27659   0.79107
C          C       0.77995   0.86282   0.37032
C          C       0.77995   0.13718   0.87032
C          C       0.88921   0.64048   0.36949
C          C       0.88921   0.35952   0.86949
C          C       0.76578   0.84304   0.31738
C          C       0.76578   0.15696   0.81738
N          N       0.73423   0.98613   0.39893
N          N       0.73423   0.01387   0.89893
C          C       0.84079   0.75818   0.39596
C          C       0.84079   0.24182   0.89596
C          C       0.93679   0.50229   0.28419
C          C       0.93679   0.49771   0.78419
C          C       0.76123   0.11233   0.65785
C          C       0.76123   0.88767   0.15785
C          C       0.12166   0.91280   0.64891
C          C       0.12166   0.08720   0.14891
C          C       0.20006   0.90892   0.38074
C          C       0.20006   0.09108   0.88074
C          C       0.70941   0.12090   0.38036
C          C       0.70941   0.87910   0.88036
C          C       0.12985   0.65966   0.60193
C          C       0.12985   0.34034   0.10193
C          C       0.31203   0.59649   0.64254
C          C       0.31203   0.40351   0.14254
C          C       0.17828   0.52353   0.58802
C          C       0.17828   0.47647   0.08802
C          C       0.27078   0.49129   0.60757
C          C       0.27078   0.50871   0.10757
C          C       0.26329   0.73105   0.65706
C          C       0.26329   0.26895   0.15706
C          C       0.17240   0.76619   0.63609
C          C       0.17240   0.23381   0.13609
C          C       0.31997   0.69552   0.38687
C          C       0.31997   0.30448   0.88687
C          C       0.20084   0.50931   0.44575
C          C       0.20084   0.49069   0.94575
C          C       0.35217   0.55133   0.40433
C          C       0.35217   0.44867   0.90433
C          C       0.29536   0.45774   0.43536
C          C       0.29536   0.54226   0.93536
C          C       0.16819   0.65501   0.42807
C          C       0.16819   0.34499   0.92807
C          C       0.22853   0.75139   0.39928
C          C       0.22853   0.24861   0.89928
C          C       0.61546   0.21646   0.45728
C          C       0.61546   0.78354   0.95728
C          C       0.62354   0.52034   0.42076
C          C       0.62354   0.47966   0.92076
C          C       0.56851   0.33709   0.48328
C          C       0.56851   0.66291   0.98328
C          C       0.57073   0.49055   0.46526
C          C       0.57073   0.50945   0.96526
C          C       0.66876   0.39972   0.39451
C          C       0.66876   0.60028   0.89451
C          C       0.66477   0.24600   0.41182
C          C       0.66477   0.75400   0.91182
C          C       0.68273   0.50319   0.60355
C          C       0.68273   0.49681   0.10355
C          C       0.60095   0.24815   0.65228
C          C       0.60095   0.75185   0.15228
C          C       0.74006   0.37606   0.61834
C          C       0.74006   0.62394   0.11834
C          C       0.69974   0.24666   0.64269
C          C       0.69974   0.75334   0.14269
C          C       0.54387   0.37379   0.63715
C          C       0.54387   0.62621   0.13715
C          C       0.58293   0.50372   0.61272
C          C       0.58293   0.49628   0.11272
C          C       0.35076   0.09590   0.51208
C          C       0.35076   0.90410   0.01208
C          C       0.47527   0.87984   0.56362
C          C       0.47527   0.12016   0.06362
C          C       0.40262   0.98214   0.48496
C          C       0.40262   0.01786   0.98496
C          C       0.46452   0.87349   0.50962
C          C       0.46452   0.12651   0.00962
C          C       0.42218   0.99235   0.59087
C          C       0.42218   0.00765   0.09087
C          C       0.36023   0.10064   0.56623
C          C       0.36023   0.89936   0.06623
O          O       0.51879   0.61874   0.59347
O          O       0.51879   0.38126   0.09347
C          C       0.54903   0.77801   0.59208
C          C       0.54903   0.22199   0.09208
C          C       0.52596   0.76528   0.47695
C          C       0.52596   0.23472   0.97695
O          O       0.51630   0.60507   0.49130
O          O       0.51630   0.39493   0.99130
C          C       0.30303   0.21625   0.59844
C          C       0.30303   0.78375   0.09844
O          O       0.32778   0.37323   0.58598
O          O       0.32778   0.62677   0.08598
C          C       0.28461   0.20800   0.48252
C          C       0.28461   0.79200   0.98252
O          O       0.33983   0.32323   0.45646
O          O       0.33983   0.67677   0.95646
H          H       0.73349   0.45024   0.27685
H          H       0.73349   0.54976   0.77685
H          H       0.99998   0.30377   0.20956
H          H       0.99998   0.69623   0.70956
H          H       0.91601   0.09130   0.16807
H          H       0.91601   0.90870   0.66807
H          H       0.65073   0.23699   0.23501
H          H       0.65073   0.76301   0.73501
H          H       0.09247   0.66899   0.31968
H          H       0.09247   0.33101   0.81968
H          H       0.92798   0.59926   0.18069
H          H       0.92798   0.40074   0.68069
H          H       0.18042   0.87900   0.27824
H          H       0.18042   0.12100   0.77824
H          H       0.01399   0.81038   0.14067
H          H       0.01399   0.18962   0.64067
H          H       0.13041   0.39620   0.27902
H          H       0.13041   0.60380   0.77902
H          H       0.86842   0.31443   0.36065
H          H       0.86842   0.68557   0.86065
H          H       0.94131   0.08693   0.40070
H          H       0.94131   0.91307   0.90070
H          H       0.20214   0.17246   0.31871
H          H       0.20214   0.82754   0.81871
H          H       0.80114   0.71454   0.25025
H          H       0.80114   0.28546   0.75025
H          H       0.94006   0.57105   0.39098
H          H       0.94006   0.42895   0.89098
H          H       0.71840   0.91938   0.29610
H          H       0.71840   0.08062   0.79610
H          H       0.85356   0.77121   0.43660
H          H       0.85356   0.22879   0.93660
H          H       0.83725   0.12012   0.65070
H          H       0.83725   0.87988   0.15070
H          H       0.05905   0.94413   0.62630
H          H       0.05905   0.05587   0.12630
H          H       0.25507   0.97629   0.36240
H          H       0.25507   0.02371   0.86240
H          H       0.72662   0.14879   0.34125
H          H       0.72662   0.85121   0.84125
H          H       0.05943   0.68282   0.58542
H          H       0.05943   0.31718   0.08542
H          H       0.38296   0.57733   0.65829
H          H       0.38296   0.42267   0.15829
H          H       0.14498   0.44623   0.56059
H          H       0.14498   0.55377   0.06059
H          H       0.29820   0.80994   0.68354
H          H       0.29820   0.19006   0.18354
H          H       0.36759   0.76464   0.36381
H          H       0.36759   0.23536   0.86381
H          H       0.15198   0.44029   0.46779
H          H       0.15198   0.55971   0.96779
H          H       0.42321   0.51289   0.39408
H          H       0.42321   0.48711   0.89408
H          H       0.09641   0.69291   0.43744
H          H       0.09641   0.30709   0.93744
H          H       0.61114   0.09993   0.47203
H          H       0.61114   0.90007   0.97203
H          H       0.62853   0.63545   0.40505
H          H       0.62853   0.36455   0.90505
H          H       0.52886   0.31045   0.51741
H          H       0.52886   0.68955   0.01741
H          H       0.70703   0.42717   0.36025
H          H       0.70703   0.57283   0.86025
H          H       0.71670   0.59671   0.58337
H          H       0.71670   0.40329   0.08337
H          H       0.56725   0.15138   0.67115
H          H       0.56725   0.84862   0.17115
H          H       0.81595   0.37774   0.60979
H          H       0.81595   0.62226   0.10979
H          H       0.46836   0.36781   0.64476
H          H       0.46836   0.63219   0.14476
H          H       0.39593   0.98051   0.44373
H          H       0.39593   0.01949   0.94373
H          H       0.42988   0.99645   0.63204
H          H       0.42988   0.00355   0.13204
H          H       0.55960   0.81932   0.63195
H          H       0.55960   0.18068   0.13195
H          H       0.61873   0.79104   0.57268
H          H       0.61873   0.20896   0.07268
H          H       0.60243   0.80078   0.48130
H          H       0.60243   0.19922   0.98130
H          H       0.50511   0.77911   0.43612
H          H       0.50511   0.22089   0.93612
H          H       0.31739   0.19707   0.63982
H          H       0.31739   0.80293   0.13982
H          H       0.22495   0.19543   0.59188
H          H       0.22495   0.80457   0.09188
H          H       0.23387   0.26330   0.50870
H          H       0.23387   0.73670   0.00870
H          H       0.24044   0.14267   0.45427
H          H       0.24044   0.85733   0.95427
