data_SIOC-COF-7
_audit_creation_date              0000-00-00
_audit_creation_method            'LanYouShi'
_symmetry_space_group_name_H-M    'P1'
_cell_length_a                    32.3499985
_cell_length_b                    18.3600006
_cell_length_c                    3.8199999
_cell_angle_alpha                 90.0000000
_cell_angle_beta                  90.0000000
_cell_angle_gamma                 122.0400009
loop_
_atom_site_label
_atom_site_type_symbol
_atom_site_fract_x
_atom_site_fract_y
_atom_site_fract_z
_atom_site_U_iso_or_equiv
_atom_site_adp_type
_atom_site_occupancy
        H1          H  0.1711900  0.0972780  0.7809940    0.00000       Uiso       1.00
        H2          H  0.2451100  0.0997150  0.8102120    0.00000       Uiso       1.00
        H3          H  0.3244800  0.3639440  0.4475210    0.00000       Uiso       1.00
        H4          H  0.2527400  0.3675890  0.4959690    0.00000       Uiso       1.00
        H5          H  0.2299400  0.3862860  1.0470220    0.00000       Uiso       1.00
        H6          H  0.2472400  0.5299470  0.9661281    0.00000       Uiso       1.00
        H7          H  0.1237100  0.4318810  0.2650950    0.00000       Uiso       1.00
        H8          H  0.1112600  0.2902550  0.3070420    0.00000       Uiso       1.00
        H9          H  0.0675000  0.2088160  0.6410000    0.00000       Uiso       1.00
       H10          H -0.0069600  0.0884390  0.8307770    0.00000       Uiso       1.00
       H11          H  0.0701400 -0.0101000  1.3759900    0.00000       Uiso       1.00
       H12          H  0.1463300  0.1158140  1.2130480    0.00000       Uiso       1.00
       H13          H  0.1717800  0.5896780  0.4004030    0.00000       Uiso       1.00
       H14          H  0.3026200  0.1041460  0.5683920    0.00000       Uiso       1.00
       H15          H  0.4577400  0.3581310  0.9437250    0.00000       Uiso       1.00
       H16          H  0.4482900  0.1147950  0.6083230    0.00000       Uiso       1.00
       H17          H  0.5171100  0.1085170  0.7991980    0.00000       Uiso       1.00
       H18          H  0.5645500  0.3299200  1.4603291    0.00000       Uiso       1.00
       H19          H  0.4955200  0.3341680  1.2954460    0.00000       Uiso       1.00
       H20          H  0.4968800  0.0488950  1.2926689    0.00000       Uiso       1.00
       H21          H  0.4827100 -0.0904700  1.3402721    0.00000       Uiso       1.00
       H22          H  0.6368700  0.0146570  1.4778460    0.00000       Uiso       1.00
       H23          H  0.6526500  0.1571570  1.4234670    0.00000       Uiso       1.00
       H24          H  0.6627501  0.2229380  0.9142300    0.00000       Uiso       1.00
       H25          H  0.7465701  0.3439710  0.9232671    0.00000       Uiso       1.00
       H26          H  0.7047200  0.4787740  1.6255151    0.00000       Uiso       1.00
       H27          H  0.6236800  0.3540860  1.6587410    0.00000       Uiso       1.00
       H28          H  0.3586300  0.3999980  0.9278980    0.00000       Uiso       1.00
       H29          H  0.8091301  0.4872960  1.0979789    0.00000       Uiso       1.00
       H30          H  0.5270200  0.5839970  0.9910520    0.00000       Uiso       1.00
       H31          H  0.5594000  0.7315370  1.1788890    0.00000       Uiso       1.00
       H32          H  0.4120900  0.6726670  1.3444991    0.00000       Uiso       1.00
       H33          H  0.3797100  0.5251370  1.1554971    0.00000       Uiso       1.00
       H34          H  0.3274700  0.7592509  0.8889070    0.00000       Uiso       1.00
       H35          H  0.3671600  0.9149529  0.8629190    0.00000       Uiso       1.00
       H36          H  0.2386600  0.8857179  0.3653940    0.00000       Uiso       1.00
       H37          H  0.1989100  0.7297550  0.3905760    0.00000       Uiso       1.00
       H38          H  0.8835400  0.5909020  1.2229151    0.00000       Uiso       1.00
       H39          H  0.9602301  0.7289630  1.1854570    0.00000       Uiso       1.00
       H40          H  0.8883300  0.8571020  1.5560470    0.00000       Uiso       1.00
       H41          H  0.8113000  0.7187200  1.5940089    0.00000       Uiso       1.00
       H42          H  0.3863201  1.0474570  0.9409450    0.00000       Uiso       1.00
       H43          H  0.5809700  0.8549449  1.4423910    0.00000       Uiso       1.00
       H44          H  0.9446601  0.9532890  1.1306061    0.00000       Uiso       1.00
       C45          C  0.1681700 -2.6754799 -0.3050900    0.00000       Uiso       1.00
       C46          C  0.1157800 -2.8285298 -0.1244200    0.00000       Uiso       1.00
       C47          C  0.2046700 -2.7644000 -0.3112900    0.00000       Uiso       1.00
       C48          C  0.2048899 -2.8402100 -0.2613900    0.00000       Uiso       1.00
       C49          C  0.2474000 -2.8407400 -0.2695900    0.00000       Uiso       1.00
       C50          C  0.2935300 -2.7659099 -0.3503000    0.00000       Uiso       1.00
       C51          C  0.2913300 -2.6945000 -0.4604200    0.00000       Uiso       1.00
       C52          C  0.2493600 -2.6929400 -0.4284100    0.00000       Uiso       1.00
       C53          C  0.2062900 -2.6043699 -0.1282500    0.00000       Uiso       1.00
       C54          C  0.2159300 -2.5220799 -0.1763600    0.00000       Uiso       1.00
       C55          C  0.1867599 -2.5055301 -0.3913500    0.00000       Uiso       1.00
       C56          C  0.1472999 -2.5768199 -0.5552400    0.00000       Uiso       1.00
       C57          C  0.1389100 -2.6591098 -0.5221400    0.00000       Uiso       1.00
       C58          C  0.0706299 -2.8374701 -0.1996300    0.00000       Uiso       1.00
       C59          C  0.0266300 -2.9080100 -0.0875100    0.00000       Uiso       1.00
       C60          C  0.0241100 -2.9747798  0.1065450    0.00000       Uiso       1.00
       C61          C  0.0689300 -2.9629598  0.2061000    0.00000       Uiso       1.00
       C62          C  0.1130700 -2.8915198  0.1014130    0.00000       Uiso       1.00
       C63          C  0.1977200 -2.4191399 -0.4478300    0.00000       Uiso       1.00
       C64          C  0.3384800 -2.7628100 -0.3021300    0.00000       Uiso       1.00
       C65          C  0.3372500 -2.8403199 -0.3396200    0.00000       Uiso       1.00
       C66          C  0.3740100 -2.8520701 -0.2374500    0.00000       Uiso       1.00
       C67          C  0.4198200 -2.7771001 -0.1413500    0.00000       Uiso       1.00
       C68          C  0.4223300 -2.6980898 -0.1308300    0.00000       Uiso       1.00
       C69          C  0.3835100 -2.6884000 -0.1846900    0.00000       Uiso       1.00
       C70          C  0.4628299 -2.7777798 -0.0531000    0.00000       Uiso       1.00
       C71          C  0.4723300 -2.8391399 -0.1915900    0.00000       Uiso       1.00
       C72          C  0.5122200 -2.8418698 -0.0881200    0.00000       Uiso       1.00
       C73          C  0.5468600 -2.7841501  0.1537640    0.00000       Uiso       1.00
       C74          C  0.5403200 -2.7180500  0.2680250    0.00000       Uiso       1.00
       C75          C  0.4998100 -2.7156200  0.1729950    0.00000       Uiso       1.00
       C76          C  0.6349999 -2.7218900  0.2755030    0.00000       Uiso       1.00
       C77          C  0.5770299 -2.8808901  0.3191110    0.00000       Uiso       1.00
       C78          C  0.5295700 -2.9549000  0.3149470    0.00000       Uiso       1.00
       C79          C  0.5208799 -3.0368199  0.3543030    0.00000       Uiso       1.00
       C80          C  0.5586000 -3.0518198  0.4027020    0.00000       Uiso       1.00
       C81          C  0.6055600 -2.9786398  0.4297730    0.00000       Uiso       1.00
       C82          C  0.6146200 -2.8959999  0.3922100    0.00000       Uiso       1.00
       C83          C  0.6719801 -2.7213998  0.0798100    0.00000       Uiso       1.00
       C84          C  0.7197601 -2.6517301  0.0839410    0.00000       Uiso       1.00
       C85          C  0.7334500 -2.5766201  0.2708560    0.00000       Uiso       1.00
       C86          C  0.6964800 -2.5769100  0.4637770    0.00000       Uiso       1.00
       C87          C  0.6489300 -2.6475599  0.4716420    0.00000       Uiso       1.00
       C88          C  0.3907200 -2.6047900 -0.1080600    0.00000       Uiso       1.00
       C89          C  0.7834901 -2.5047598  0.2580280    0.00000       Uiso       1.00
       C90          C  0.2600900 -2.2678199 -0.3558300    0.00000       Uiso       1.00
       C91          C  0.4510200 -2.4568298  0.0551180    0.00000       Uiso       1.00
       C92          C  0.8407900 -2.3563299  0.4069670    0.00000       Uiso       1.00
       C93          C  0.5014000 -2.3969398  0.0703460    0.00000       Uiso       1.00
       C94          C  0.5197200 -2.3134599  0.1795810    0.00000       Uiso       1.00
       C95          C  0.4881899 -2.2863400  0.2803370    0.00000       Uiso       1.00
       C96          C  0.4377700 -2.3465700  0.2694560    0.00000       Uiso       1.00
       C97          C  0.4194300 -2.4301200  0.1600490    0.00000       Uiso       1.00
       C98          C  0.3076200 -2.2133601 -0.2285100    0.00000       Uiso       1.00
       C99          C  0.3301100 -2.1250200 -0.2432800    0.00000       Uiso       1.00
      C100          C  0.3057100 -2.0874500 -0.3864000    0.00000       Uiso       1.00
      C101          C  0.2585100 -2.1418998 -0.5191900    0.00000       Uiso       1.00
      C102          C  0.2360100 -2.2302599 -0.5042800    0.00000       Uiso       1.00
      C103          C  0.8838801 -2.3511100  0.2990170    0.00000       Uiso       1.00
      C104          C  0.9275900 -2.2727699  0.2791480    0.00000       Uiso       1.00
      C105          C  0.9303800 -2.1958899  0.3632110    0.00000       Uiso       1.00
      C106          C  0.8877000 -2.2013202  0.4823170    0.00000       Uiso       1.00
      C107          C  0.8440700 -2.2797198  0.5046080    0.00000       Uiso       1.00
      C108          C  0.3637500 -1.9392300 -0.2299500    0.00000       Uiso       1.00
      C109          C  0.5493501 -2.1379199  0.4239610    0.00000       Uiso       1.00
      C110          C  0.9770401 -2.0490201  0.1976730    0.00000       Uiso       1.00
      N111          N  0.1618900 -2.7585199 -0.2591200    0.00000       Uiso       1.00
      N112          N  0.5859401 -2.7952399  0.2655050    0.00000       Uiso       1.00
      N113          N  0.2388100 -2.3565900 -0.3285000    0.00000       Uiso       1.00
      N114          N  0.4346901 -2.5400298 -0.0608800    0.00000       Uiso       1.00
      N115          N  0.7952800 -2.4338799  0.4164630    0.00000       Uiso       1.00
      N116          N  0.3260700 -1.9987600 -0.3971500    0.00000       Uiso       1.00
      N117          N  0.5050400 -2.2013798  0.3738580    0.00000       Uiso       1.00
      N118          N  0.9745400 -2.1171601  0.3189000    0.00000       Uiso       1.00
