data_crystal
 
_cell_length_a    32.35000
_cell_length_b    18.36000
_cell_length_c    3.82000
_cell_angle_alpha 90.00000
_cell_angle_beta  90.00000
_cell_angle_gamma 122.04000
 
_symmetry_space_group_name_Hall 'P 1'
_symmetry_space_group_name_H-M  'P 1'
 
loop_
_symmetry_equiv_pos_as_xyz
 'x,y,z' 
 
loop_
_atom_site_label
_atom_site_type_symbol
_atom_site_fract_x
_atom_site_fract_y
_atom_site_fract_z
_atom_site_charge
H          H       0.17119   0.09728   0.78099   0.0000000000
H          H       0.24511   0.09971   0.81021   0.0000000000
H          H       0.32448   0.36394   0.44752   0.0000000000
H          H       0.25274   0.36759   0.49597   0.0000000000
H          H       0.22994   0.38629   1.04702   0.0000000000
H          H       0.24724   0.52995   0.96613   0.0000000000
H          H       0.12371   0.43188   0.26510   0.0000000000
H          H       0.11126   0.29025   0.30704   0.0000000000
H          H       0.06750   0.20882   0.64100   0.0000000000
H          H      -0.00696   0.08844   0.83078   0.0000000000
H          H       0.07014  -0.01010   1.37599   0.0000000000
H          H       0.14633   0.11581   1.21305   0.0000000000
H          H       0.17178   0.58968   0.40040   0.0000000000
H          H       0.30262   0.10415   0.56839   0.0000000000
H          H       0.45774   0.35813   0.94373   0.0000000000
H          H       0.44829   0.11479   0.60832   0.0000000000
H          H       0.51711   0.10852   0.79920   0.0000000000
H          H       0.56455   0.32992   1.46033   0.0000000000
H          H       0.49552   0.33417   1.29545   0.0000000000
H          H       0.49688   0.04890   1.29267   0.0000000000
H          H       0.48271  -0.09047   1.34027   0.0000000000
H          H       0.63687   0.01466   1.47785   0.0000000000
H          H       0.65265   0.15716   1.42347   0.0000000000
H          H       0.66275   0.22294   0.91423   0.0000000000
H          H       0.74657   0.34397   0.92327   0.0000000000
H          H       0.70472   0.47877   1.62552   0.0000000000
H          H       0.62368   0.35409   1.65874   0.0000000000
H          H       0.35863   0.40000   0.92790   0.0000000000
H          H       0.80913   0.48730   1.09798   0.0000000000
H          H       0.52702   0.58400   0.99105   0.0000000000
H          H       0.55940   0.73154   1.17889   0.0000000000
H          H       0.41209   0.67267   1.34450   0.0000000000
H          H       0.37971   0.52514   1.15550   0.0000000000
H          H       0.32747   0.75925   0.88891   0.0000000000
H          H       0.36716   0.91495   0.86292   0.0000000000
H          H       0.23866   0.88572   0.36539   0.0000000000
H          H       0.19891   0.72976   0.39058   0.0000000000
H          H       0.88354   0.59090   1.22292   0.0000000000
H          H       0.96023   0.72896   1.18546   0.0000000000
H          H       0.88833   0.85710   1.55605   0.0000000000
H          H       0.81130   0.71872   1.59401   0.0000000000
H          H       0.38632   1.04746   0.94095   0.0000000000
H          H       0.58097   0.85494   1.44239   0.0000000000
H          H       0.94466   0.95329   1.13061   0.0000000000
C          C       0.16817  -2.67548  -0.30509   0.0000000000
C          C       0.11578  -2.82853  -0.12442   0.0000000000
C          C       0.20467  -2.76440  -0.31129   0.0000000000
C          C       0.20489  -2.84021  -0.26139   0.0000000000
C          C       0.24740  -2.84074  -0.26959   0.0000000000
C          C       0.29353  -2.76591  -0.35030   0.0000000000
C          C       0.29133  -2.69450  -0.46042   0.0000000000
C          C       0.24936  -2.69294  -0.42841   0.0000000000
C          C       0.20629  -2.60437  -0.12825   0.0000000000
C          C       0.21593  -2.52208  -0.17636   0.0000000000
C          C       0.18676  -2.50553  -0.39135   0.0000000000
C          C       0.14730  -2.57682  -0.55524   0.0000000000
C          C       0.13891  -2.65911  -0.52214   0.0000000000
C          C       0.07063  -2.83747  -0.19963   0.0000000000
C          C       0.02663  -2.90801  -0.08751   0.0000000000
C          C       0.02411  -2.97478   0.10655   0.0000000000
C          C       0.06893  -2.96296   0.20610   0.0000000000
C          C       0.11307  -2.89152   0.10141   0.0000000000
C          C       0.19772  -2.41914  -0.44783   0.0000000000
C          C       0.33848  -2.76281  -0.30213   0.0000000000
C          C       0.33725  -2.84032  -0.33962   0.0000000000
C          C       0.37401  -2.85207  -0.23745   0.0000000000
C          C       0.41982  -2.77710  -0.14135   0.0000000000
C          C       0.42233  -2.69809  -0.13083   0.0000000000
C          C       0.38351  -2.68840  -0.18469   0.0000000000
C          C       0.46283  -2.77778  -0.05310   0.0000000000
C          C       0.47233  -2.83914  -0.19159   0.0000000000
C          C       0.51222  -2.84187  -0.08812   0.0000000000
C          C       0.54686  -2.78415   0.15376   0.0000000000
C          C       0.54032  -2.71805   0.26803   0.0000000000
C          C       0.49981  -2.71562   0.17300   0.0000000000
C          C       0.63500  -2.72189   0.27550   0.0000000000
C          C       0.57703  -2.88089   0.31911   0.0000000000
C          C       0.52957  -2.95490   0.31495   0.0000000000
C          C       0.52088  -3.03682   0.35430   0.0000000000
C          C       0.55860  -3.05182   0.40270   0.0000000000
C          C       0.60556  -2.97864   0.42977   0.0000000000
C          C       0.61462  -2.89600   0.39221   0.0000000000
C          C       0.67198  -2.72140   0.07981   0.0000000000
C          C       0.71976  -2.65173   0.08394   0.0000000000
C          C       0.73345  -2.57662   0.27086   0.0000000000
C          C       0.69648  -2.57691   0.46378   0.0000000000
C          C       0.64893  -2.64756   0.47164   0.0000000000
C          C       0.39072  -2.60479  -0.10806   0.0000000000
C          C       0.78349  -2.50476   0.25803   0.0000000000
C          C       0.26009  -2.26782  -0.35583   0.0000000000
C          C       0.45102  -2.45683   0.05512   0.0000000000
C          C       0.84079  -2.35633   0.40697   0.0000000000
C          C       0.50140  -2.39694   0.07035   0.0000000000
C          C       0.51972  -2.31346   0.17958   0.0000000000
C          C       0.48819  -2.28634   0.28034   0.0000000000
C          C       0.43777  -2.34657   0.26946   0.0000000000
C          C       0.41943  -2.43012   0.16005   0.0000000000
C          C       0.30762  -2.21336  -0.22851   0.0000000000
C          C       0.33011  -2.12502  -0.24328   0.0000000000
C          C       0.30571  -2.08745  -0.38640   0.0000000000
C          C       0.25851  -2.14190  -0.51919   0.0000000000
C          C       0.23601  -2.23026  -0.50428   0.0000000000
C          C       0.88388  -2.35111   0.29902   0.0000000000
C          C       0.92759  -2.27277   0.27915   0.0000000000
C          C       0.93038  -2.19589   0.36321   0.0000000000
C          C       0.88770  -2.20132   0.48232   0.0000000000
C          C       0.84407  -2.27972   0.50461   0.0000000000
C          C       0.36375  -1.93923  -0.22995   0.0000000000
C          C       0.54935  -2.13792   0.42396   0.0000000000
C          C       0.97704  -2.04902   0.19767   0.0000000000
N          N       0.16189  -2.75852  -0.25912   0.0000000000
N          N       0.58594  -2.79524   0.26550   0.0000000000
N          N       0.23881  -2.35659  -0.32850   0.0000000000
N          N       0.43469  -2.54003  -0.06088   0.0000000000
N          N       0.79528  -2.43388   0.41646   0.0000000000
N          N       0.32607  -1.99876  -0.39715   0.0000000000
N          N       0.50504  -2.20138   0.37386   0.0000000000
N          N       0.97454  -2.11716   0.31890   0.0000000000
