data_crystal

_cell_length_a    60.20050
_cell_length_b    45.68710
_cell_length_c    7.78280
_cell_angle_alpha 90.00000
_cell_angle_beta  90.00000
_cell_angle_gamma 90.00000

_symmetry_space_group_name_Hall 'P 1'
_symmetry_space_group_name_H-M  'P 1'

loop_
_symmetry_equiv_pos_as_xyz
 'x,y,z'

loop_
_atom_site_label
_atom_site_type_symbol
_atom_site_fract_x
_atom_site_fract_y
_atom_site_fract_z
C          C       0.27078   0.26385   0.25771
C          C       0.72922   0.73615   0.25771
C          C       0.72922   0.26385   0.24229
C          C       0.27078   0.73615   0.24229
C          C       0.26698   0.23508   0.31944
C          C       0.73302   0.76492   0.31944
C          C       0.73302   0.23508   0.18056
C          C       0.26698   0.76492   0.18056
C          C       0.24643   0.22272   0.31597
C          C       0.75357   0.77728   0.31597
C          C       0.75357   0.22272   0.18403
C          C       0.24643   0.77728   0.18403
C          C       0.29248   0.27670   0.26014
C          C       0.70752   0.72330   0.26014
C          C       0.70752   0.27670   0.23986
C          C       0.29248   0.72330   0.23986
C          C       0.31065   0.28746   0.26140
C          C       0.68935   0.71254   0.26140
C          C       0.68935   0.28746   0.23860
C          C       0.31065   0.71254   0.23860
C          C       0.33233   0.30033   0.26161
C          C       0.66767   0.69967   0.26161
C          C       0.66767   0.30033   0.23839
C          C       0.33233   0.69967   0.23839
C          C       0.14908   0.21666   0.30969
C          C       0.85092   0.78334   0.30969
C          C       0.85092   0.21666   0.19031
C          C       0.14908   0.78334   0.19031
C          C       0.12817   0.20367   0.31196
C          C       0.87183   0.79633   0.31196
C          C       0.87183   0.20367   0.18804
C          C       0.12817   0.79633   0.18804
C          C       0.12502   0.17479   0.24797
C          C       0.87498   0.82521   0.24797
C          C       0.87498   0.17479   0.25203
C          C       0.12502   0.82521   0.25203
C          C       0.14315   0.15917   0.18020
C          C       0.85685   0.84083   0.18020
C          C       0.85685   0.15917   0.31980
C          C       0.14315   0.84083   0.31980
C          C       0.16405   0.17222   0.17799
C          C       0.83595   0.82778   0.17799
C          C       0.83595   0.17222   0.32200
C          C       0.16405   0.82778   0.32200
C          C       0.39675   0.33920   0.24584
C          C       0.60325   0.66080   0.24584
C          C       0.60325   0.33920   0.25416
C          C       0.39675   0.66080   0.25416
N          N       0.40028   0.36608   0.30061
N          N       0.59972   0.63392   0.30061
N          N       0.59972   0.36608   0.19939
N          N       0.40028   0.63392   0.19939
C          C       0.42070   0.38222   0.29336
C          C       0.57930   0.61778   0.29336
C          C       0.57930   0.38222   0.20664
C          C       0.42070   0.61778   0.20664
C          C       0.07800   0.09089   0.12187
C          C       0.92200   0.90911   0.12187
C          C       0.92200   0.09089   0.37813
C          C       0.07800   0.90911   0.37813
C          C       0.05874   0.07391   0.12594
C          C       0.94126   0.92609   0.12594
C          C       0.94126   0.07391   0.37406
C          C       0.05874   0.92609   0.37406
C          C       0.04077   0.08226   0.23020
C          C       0.95923   0.91774   0.23020
C          C       0.95923   0.08226   0.26980
C          C       0.04077   0.91774   0.26980
C          C       0.04203   0.10986   0.31637
C          C       0.95797   0.89014   0.31637
C          C       0.95797   0.10986   0.18363
C          C       0.04203   0.89014   0.18363
C          C       0.06080   0.12770   0.30410
C          C       0.93920   0.87230   0.30410
C          C       0.93920   0.12770   0.19590
C          C       0.06080   0.87230   0.19590
C          C       0.47971   0.43657   0.25630
C          C       0.52029   0.56343   0.25630
C          C       0.52029   0.43657   0.24370
C          C       0.47971   0.56343   0.24370
C          C       0.02028   0.03177   0.25051
C          C       0.97972   0.96823   0.25051
C          C       0.97972   0.03177   0.24949
C          C       0.02028   0.96823   0.24949
C          C       0.46011   0.48468   0.24266
C          C       0.53989   0.51532   0.24266
C          C       0.53989   0.48468   0.25733
C          C       0.46011   0.51532   0.25733
H          H       0.15125   0.23885   0.36123
H          H       0.84875   0.76115   0.36123
H          H       0.84875   0.23885   0.13877
H          H       0.15125   0.76115   0.13877
H          H       0.11448   0.21607   0.36552
H          H       0.88552   0.78393   0.36552
H          H       0.88552   0.21607   0.13448
H          H       0.11448   0.78393   0.13448
H          H       0.14122   0.13691   0.12939
H          H       0.85878   0.86309   0.12939
H          H       0.85878   0.13691   0.37061
H          H       0.14122   0.86309   0.37061
H          H       0.17786   0.15989   0.12579
H          H       0.82214   0.84011   0.12579
H          H       0.82214   0.15989   0.37421
H          H       0.17786   0.84011   0.37421
H          H       0.40991   0.32600   0.19145
H          H       0.59009   0.67400   0.19145
H          H       0.59009   0.32600   0.30855
H          H       0.40991   0.67400   0.30855
H          H       0.09182   0.08337   0.04498
H          H       0.90818   0.91663   0.04498
H          H       0.90818   0.08337   0.45502
H          H       0.09182   0.91663   0.45502
H          H       0.05791   0.05442   0.04475
H          H       0.94209   0.94558   0.04475
H          H       0.94209   0.05442   0.45525
H          H       0.05791   0.94558   0.45525
H          H       0.02889   0.11729   0.40026
H          H       0.97111   0.88271   0.40026
H          H       0.97111   0.11729   0.09974
H          H       0.02889   0.88271   0.09974
H          H       0.06104   0.14816   0.37688
H          H       0.93896   0.85184   0.37688
H          H       0.93896   0.14816   0.12312
H          H       0.06104   0.85184   0.12312
H          H       0.44425   0.47442   0.22526
H          H       0.55575   0.52558   0.22526
H          H       0.55575   0.47442   0.27475
H          H       0.44425   0.52558   0.27475
C          C       0.77168   0.76171   0.25043
C          C       0.22832   0.23829   0.25043
C          C       0.22832   0.76171   0.24957
C          C       0.77168   0.23829   0.24957
C          C       0.76832   0.73275   0.18754
C          C       0.23168   0.26725   0.18754
C          C       0.23168   0.73275   0.31246
C          C       0.76832   0.26725   0.31246
C          C       0.74715   0.72001   0.19116
C          C       0.25285   0.27999   0.19116
C          C       0.25285   0.72001   0.30884
C          C       0.74715   0.27999   0.30884
C          C       0.79328   0.77485   0.24671
C          C       0.20672   0.22515   0.24671
C          C       0.20672   0.77485   0.25328
C          C       0.79328   0.22515   0.25328
C          C       0.81136   0.78589   0.24446
C          C       0.18864   0.21411   0.24446
C          C       0.18864   0.78589   0.25554
C          C       0.81136   0.21411   0.25554
C          C       0.83294   0.79907   0.24328
C          C       0.16706   0.20093   0.24328
C          C       0.16706   0.79907   0.25672
C          C       0.83294   0.20093   0.25672
C          C       0.64985   0.71562   0.19424
C          C       0.35015   0.28438   0.19424
C          C       0.35015   0.71562   0.30576
C          C       0.64985   0.28438   0.30576
C          C       0.62885   0.70290   0.19107
C          C       0.37115   0.29710   0.19107
C          C       0.37115   0.70290   0.30893
C          C       0.62885   0.29710   0.30893
C          C       0.62545   0.67407   0.25516
C          C       0.37455   0.32593   0.25516
C          C       0.37455   0.67407   0.24484
C          C       0.62545   0.32593   0.24484
C          C       0.64342   0.65824   0.32393
C          C       0.35658   0.34176   0.32393
C          C       0.35658   0.65824   0.17607
C          C       0.64342   0.34176   0.17607
C          C       0.66441   0.67101   0.32699
C          C       0.33559   0.32899   0.32699
C          C       0.33559   0.67101   0.17301
C          C       0.66441   0.32899   0.17301
C          C       0.89711   0.83872   0.25636
C          C       0.10289   0.16128   0.25636
C          C       0.10289   0.83872   0.24364
C          C       0.89711   0.16128   0.24364
N          N       0.90042   0.86571   0.20248
N          N       0.09958   0.13429   0.20248
N          N       0.09958   0.86571   0.29751
N          N       0.90042   0.13429   0.29751
C          C       0.92079   0.88200   0.20934
C          C       0.07921   0.11800   0.20934
C          C       0.07921   0.88200   0.29066
C          C       0.92079   0.11800   0.29066
C          C       0.57797   0.59066   0.38059
C          C       0.42203   0.40934   0.38059
C          C       0.42203   0.59066   0.11941
C          C       0.57797   0.40934   0.11941
C          C       0.55867   0.57378   0.37594
C          C       0.44133   0.42622   0.37594
C          C       0.44133   0.57378   0.12406
C          C       0.55867   0.42622   0.12406
C          C       0.54076   0.58224   0.27133
C          C       0.45924   0.41776   0.27133
C          C       0.45924   0.58224   0.22867
C          C       0.54076   0.41776   0.22867
C          C       0.54212   0.60987   0.18566
C          C       0.45788   0.39013   0.18566
C          C       0.45788   0.60987   0.31434
C          C       0.54212   0.39013   0.31434
C          C       0.56093   0.62763   0.19850
C          C       0.43907   0.37237   0.19850
C          C       0.43907   0.62763   0.30150
C          C       0.56093   0.37237   0.30150
C          C       0.97971   0.93657   0.24427
C          C       0.02029   0.06343   0.24427
C          C       0.02029   0.93657   0.25573
C          C       0.97971   0.06343   0.25573
C          C       0.52028   0.53177   0.24976
C          C       0.47972   0.46823   0.24976
C          C       0.47972   0.53177   0.25024
C          C       0.52028   0.46823   0.25024
C          C       0.96011   0.98468   0.25756
C          C       0.03989   0.01532   0.25756
C          C       0.03989   0.98468   0.24244
C          C       0.96011   0.01532   0.24244
H          H       0.65223   0.73777   0.14264
H          H       0.34777   0.26223   0.14264
H          H       0.34777   0.73777   0.35736
H          H       0.65223   0.26223   0.35736
H          H       0.61529   0.71545   0.13679
H          H       0.38471   0.28455   0.13679
H          H       0.38471   0.71545   0.36321
H          H       0.61529   0.28455   0.36321
H          H       0.64129   0.63602   0.37483
H          H       0.35871   0.36398   0.37483
H          H       0.35871   0.63602   0.12517
H          H       0.64129   0.36398   0.12517
H          H       0.67809   0.65852   0.37996
H          H       0.32191   0.34148   0.37996
H          H       0.32191   0.65852   0.12004
H          H       0.67809   0.34148   0.12004
H          H       0.91040   0.82560   0.30927
H          H       0.08960   0.17440   0.30927
H          H       0.08960   0.82560   0.19073
H          H       0.91040   0.17440   0.19073
H          H       0.59175   0.58304   0.45762
H          H       0.40825   0.41696   0.45762
H          H       0.40825   0.58304   0.04238
H          H       0.59175   0.41696   0.04238
H          H       0.55778   0.55425   0.45675
H          H       0.44222   0.44575   0.45675
H          H       0.44222   0.55425   0.04325
H          H       0.55778   0.44575   0.04325
H          H       0.52901   0.61740   0.10165
H          H       0.47099   0.38260   0.10165
H          H       0.47099   0.61740   0.39835
H          H       0.52901   0.38260   0.39835
H          H       0.56124   0.64813   0.12614
H          H       0.43876   0.35187   0.12614
H          H       0.43876   0.64813   0.37386
H          H       0.56124   0.35187   0.37386
H          H       0.94425   0.97443   0.27520
H          H       0.05575   0.02557   0.27520
H          H       0.05575   0.97443   0.22480
H          H       0.94425   0.02557   0.22480
H          H       0.78196   0.72011   0.13518
H          H       0.21804   0.27989   0.13518
H          H       0.21804   0.72011   0.36482
H          H       0.78196   0.27989   0.36482
H          H       0.74478   0.69775   0.14139
H          H       0.25522   0.30225   0.14139
H          H       0.25522   0.69775   0.35861
H          H       0.74478   0.30225   0.35861
N          N       0.24593   0.80501   0.12069
N          N       0.75407   0.19499   0.12069
N          N       0.75407   0.80501   0.37931
N          N       0.24593   0.19499   0.37931
S          S       0.27127   0.81619   0.05559
S          S       0.72873   0.18381   0.05559
S          S       0.72873   0.81619   0.44441
S          S       0.27127   0.18381   0.44441
N          N       0.28231   0.78312   0.11463
N          N       0.71769   0.21688   0.11463
N          N       0.71769   0.78312   0.38537
N          N       0.28231   0.21688   0.38537
C          C       0.00000   0.07828   0.25000
C          C       0.00000   0.92172   0.25000
C          C       0.00000   0.01594   0.25000
C          C       0.00000   0.98406   0.25000
H          H       0.00000   0.10226   0.25000
H          H       0.00000   0.89774   0.25000
C          C       0.50000   0.57829   0.25000
C          C       0.50000   0.42171   0.25000
C          C       0.50000   0.51594   0.25000
C          C       0.50000   0.48406   0.25000
H          H       0.50000   0.60227   0.25000
H          H       0.50000   0.39773   0.25000
C          C       0.27078   0.26385   0.75771
C          C       0.72922   0.73615   0.75771
C          C       0.72922   0.26385   0.74230
C          C       0.27078   0.73615   0.74230
C          C       0.26698   0.23508   0.81944
C          C       0.73302   0.76492   0.81944
C          C       0.73302   0.23508   0.68056
C          C       0.26698   0.76492   0.68056
C          C       0.24643   0.22272   0.81597
C          C       0.75357   0.77728   0.81597
C          C       0.75357   0.22272   0.68403
C          C       0.24643   0.77728   0.68403
C          C       0.29248   0.27670   0.76014
C          C       0.70752   0.72330   0.76014
C          C       0.70752   0.27670   0.73986
C          C       0.29248   0.72330   0.73986
C          C       0.31065   0.28746   0.76140
C          C       0.68935   0.71254   0.76140
C          C       0.68935   0.28746   0.73860
C          C       0.31065   0.71254   0.73860
C          C       0.33233   0.30033   0.76161
C          C       0.66767   0.69967   0.76161
C          C       0.66767   0.30033   0.73839
C          C       0.33233   0.69967   0.73839
C          C       0.14908   0.21666   0.80970
C          C       0.85092   0.78334   0.80970
C          C       0.85092   0.21666   0.69031
C          C       0.14908   0.78334   0.69031
C          C       0.12817   0.20367   0.81196
C          C       0.87183   0.79633   0.81196
C          C       0.87183   0.20367   0.68804
C          C       0.12817   0.79633   0.68804
C          C       0.12502   0.17479   0.74797
C          C       0.87498   0.82521   0.74797
C          C       0.87498   0.17479   0.75203
C          C       0.12502   0.82521   0.75203
C          C       0.14315   0.15917   0.68020
C          C       0.85685   0.84083   0.68020
C          C       0.85685   0.15917   0.81980
C          C       0.14315   0.84083   0.81980
C          C       0.16405   0.17222   0.67800
C          C       0.83595   0.82778   0.67800
C          C       0.83595   0.17222   0.82200
C          C       0.16405   0.82778   0.82200
C          C       0.39675   0.33920   0.74584
C          C       0.60325   0.66080   0.74584
C          C       0.60325   0.33920   0.75416
C          C       0.39675   0.66080   0.75416
N          N       0.40028   0.36608   0.80061
N          N       0.59972   0.63392   0.80061
N          N       0.59972   0.36608   0.69939
N          N       0.40028   0.63392   0.69939
C          C       0.42070   0.38222   0.79336
C          C       0.57930   0.61778   0.79336
C          C       0.57930   0.38222   0.70664
C          C       0.42070   0.61778   0.70664
C          C       0.07800   0.09089   0.62187
C          C       0.92200   0.90911   0.62187
C          C       0.92200   0.09089   0.87813
C          C       0.07800   0.90911   0.87813
C          C       0.05874   0.07391   0.62594
C          C       0.94126   0.92609   0.62594
C          C       0.94126   0.07391   0.87406
C          C       0.05874   0.92609   0.87406
C          C       0.04077   0.08226   0.73020
C          C       0.95923   0.91774   0.73020
C          C       0.95923   0.08226   0.76980
C          C       0.04077   0.91774   0.76980
C          C       0.04203   0.10986   0.81637
C          C       0.95797   0.89014   0.81637
C          C       0.95797   0.10986   0.68363
C          C       0.04203   0.89014   0.68363
C          C       0.06080   0.12770   0.80410
C          C       0.93920   0.87230   0.80410
C          C       0.93920   0.12770   0.69590
C          C       0.06080   0.87230   0.69590
C          C       0.47971   0.43657   0.75630
C          C       0.52029   0.56343   0.75630
C          C       0.52029   0.43657   0.74370
C          C       0.47971   0.56343   0.74370
C          C       0.02028   0.03177   0.75051
C          C       0.97972   0.96823   0.75051
C          C       0.97972   0.03177   0.74948
C          C       0.02028   0.96823   0.74948
C          C       0.46011   0.48468   0.74266
C          C       0.53989   0.51532   0.74266
C          C       0.53989   0.48468   0.75733
C          C       0.46011   0.51532   0.75733
H          H       0.15125   0.23885   0.86123
H          H       0.84875   0.76115   0.86123
H          H       0.84875   0.23885   0.63877
H          H       0.15125   0.76115   0.63877
H          H       0.11448   0.21607   0.86552
H          H       0.88552   0.78393   0.86552
H          H       0.88552   0.21607   0.63448
H          H       0.11448   0.78393   0.63448
H          H       0.14122   0.13691   0.62939
H          H       0.85878   0.86309   0.62939
H          H       0.85878   0.13691   0.87061
H          H       0.14122   0.86309   0.87061
H          H       0.17786   0.15989   0.62579
H          H       0.82214   0.84011   0.62579
H          H       0.82214   0.15989   0.87421
H          H       0.17786   0.84011   0.87421
H          H       0.40991   0.32600   0.69145
H          H       0.59009   0.67400   0.69145
H          H       0.59009   0.32600   0.80855
H          H       0.40991   0.67400   0.80855
H          H       0.09182   0.08337   0.54498
H          H       0.90818   0.91663   0.54498
H          H       0.90818   0.08337   0.95502
H          H       0.09182   0.91663   0.95502
H          H       0.05791   0.05442   0.54475
H          H       0.94209   0.94558   0.54475
H          H       0.94209   0.05442   0.95525
H          H       0.05791   0.94558   0.95525
H          H       0.02889   0.11729   0.90026
H          H       0.97111   0.88271   0.90026
H          H       0.97111   0.11729   0.59974
H          H       0.02889   0.88271   0.59974
H          H       0.06104   0.14816   0.87687
H          H       0.93896   0.85184   0.87687
H          H       0.93896   0.14816   0.62313
H          H       0.06104   0.85184   0.62313
H          H       0.44425   0.47442   0.72525
H          H       0.55575   0.52558   0.72525
H          H       0.55575   0.47442   0.77475
H          H       0.44425   0.52558   0.77475
C          C       0.77168   0.76171   0.75043
C          C       0.22832   0.23829   0.75043
C          C       0.22832   0.76171   0.74957
C          C       0.77168   0.23829   0.74957
C          C       0.76832   0.73275   0.68754
C          C       0.23168   0.26725   0.68754
C          C       0.23168   0.73275   0.81246
C          C       0.76832   0.26725   0.81246
C          C       0.74715   0.72001   0.69116
C          C       0.25285   0.27999   0.69116
C          C       0.25285   0.72001   0.80884
C          C       0.74715   0.27999   0.80884
C          C       0.79328   0.77485   0.74671
C          C       0.20672   0.22515   0.74671
C          C       0.20672   0.77485   0.75328
C          C       0.79328   0.22515   0.75328
C          C       0.81136   0.78589   0.74446
C          C       0.18864   0.21411   0.74446
C          C       0.18864   0.78589   0.75554
C          C       0.81136   0.21411   0.75554
C          C       0.83294   0.79907   0.74328
C          C       0.16706   0.20093   0.74328
C          C       0.16706   0.79907   0.75672
C          C       0.83294   0.20093   0.75672
C          C       0.64985   0.71562   0.69424
C          C       0.35015   0.28438   0.69424
C          C       0.35015   0.71562   0.80576
C          C       0.64985   0.28438   0.80576
C          C       0.62885   0.70290   0.69107
C          C       0.37115   0.29710   0.69107
C          C       0.37115   0.70290   0.80893
C          C       0.62885   0.29710   0.80893
C          C       0.62545   0.67407   0.75516
C          C       0.37455   0.32593   0.75516
C          C       0.37455   0.67407   0.74484
C          C       0.62545   0.32593   0.74484
C          C       0.64342   0.65824   0.82393
C          C       0.35658   0.34176   0.82393
C          C       0.35658   0.65824   0.67607
C          C       0.64342   0.34176   0.67607
C          C       0.66441   0.67101   0.82699
C          C       0.33559   0.32899   0.82699
C          C       0.33559   0.67101   0.67300
C          C       0.66441   0.32899   0.67300
C          C       0.89711   0.83872   0.75636
C          C       0.10289   0.16128   0.75636
C          C       0.10289   0.83872   0.74364
C          C       0.89711   0.16128   0.74364
N          N       0.90042   0.86571   0.70249
N          N       0.09958   0.13429   0.70249
N          N       0.09958   0.86571   0.79751
N          N       0.90042   0.13429   0.79751
C          C       0.92079   0.88200   0.70934
C          C       0.07921   0.11800   0.70934
C          C       0.07921   0.88200   0.79066
C          C       0.92079   0.11800   0.79066
C          C       0.57797   0.59066   0.88059
C          C       0.42203   0.40934   0.88059
C          C       0.42203   0.59066   0.61941
C          C       0.57797   0.40934   0.61941
C          C       0.55867   0.57378   0.87594
C          C       0.44133   0.42622   0.87594
C          C       0.44133   0.57378   0.62406
C          C       0.55867   0.42622   0.62406
C          C       0.54076   0.58224   0.77133
C          C       0.45924   0.41776   0.77133
C          C       0.45924   0.58224   0.72867
C          C       0.54076   0.41776   0.72867
C          C       0.54212   0.60987   0.68566
C          C       0.45788   0.39013   0.68566
C          C       0.45788   0.60987   0.81434
C          C       0.54212   0.39013   0.81434
C          C       0.56093   0.62763   0.69850
C          C       0.43907   0.37237   0.69850
C          C       0.43907   0.62763   0.80149
C          C       0.56093   0.37237   0.80149
C          C       0.97971   0.93657   0.74426
C          C       0.02029   0.06343   0.74426
C          C       0.02029   0.93657   0.75574
C          C       0.97971   0.06343   0.75574
C          C       0.52028   0.53177   0.74976
C          C       0.47972   0.46823   0.74976
C          C       0.47972   0.53177   0.75024
C          C       0.52028   0.46823   0.75024
C          C       0.96011   0.98468   0.75756
C          C       0.03989   0.01532   0.75756
C          C       0.03989   0.98468   0.74244
C          C       0.96011   0.01532   0.74244
H          H       0.65223   0.73777   0.64264
H          H       0.34777   0.26223   0.64264
H          H       0.34777   0.73777   0.85736
H          H       0.65223   0.26223   0.85736
H          H       0.61529   0.71545   0.63679
H          H       0.38471   0.28455   0.63679
H          H       0.38471   0.71545   0.86321
H          H       0.61529   0.28455   0.86321
H          H       0.64129   0.63602   0.87483
H          H       0.35871   0.36398   0.87483
H          H       0.35871   0.63602   0.62517
H          H       0.64129   0.36398   0.62517
H          H       0.67809   0.65852   0.87996
H          H       0.32191   0.34148   0.87996
H          H       0.32191   0.65852   0.62004
H          H       0.67809   0.34148   0.62004
H          H       0.91040   0.82560   0.80926
H          H       0.08960   0.17440   0.80926
H          H       0.08960   0.82560   0.69073
H          H       0.91040   0.17440   0.69073
H          H       0.59175   0.58304   0.95762
H          H       0.40825   0.41696   0.95762
H          H       0.40825   0.58304   0.54238
H          H       0.59175   0.41696   0.54238
H          H       0.55778   0.55425   0.95675
H          H       0.44222   0.44575   0.95675
H          H       0.44222   0.55425   0.54325
H          H       0.55778   0.44575   0.54325
H          H       0.52901   0.61740   0.60165
H          H       0.47099   0.38260   0.60165
H          H       0.47099   0.61740   0.89835
H          H       0.52901   0.38260   0.89835
H          H       0.56124   0.64813   0.62614
H          H       0.43876   0.35187   0.62614
H          H       0.43876   0.64813   0.87386
H          H       0.56124   0.35187   0.87386
H          H       0.94425   0.97443   0.77521
H          H       0.05575   0.02557   0.77521
H          H       0.05575   0.97443   0.72480
H          H       0.94425   0.02557   0.72480
H          H       0.78196   0.72011   0.63518
H          H       0.21804   0.27989   0.63518
H          H       0.21804   0.72011   0.86482
H          H       0.78196   0.27989   0.86482
H          H       0.74478   0.69775   0.64139
H          H       0.25522   0.30225   0.64139
H          H       0.25522   0.69775   0.85861
H          H       0.74478   0.30225   0.85861
N          N       0.24593   0.80501   0.62069
N          N       0.75407   0.19499   0.62069
N          N       0.75407   0.80501   0.87931
N          N       0.24593   0.19499   0.87931
S          S       0.27127   0.81619   0.55559
S          S       0.72873   0.18381   0.55559
S          S       0.72873   0.81619   0.94441
S          S       0.27127   0.18381   0.94441
N          N       0.28231   0.78312   0.61463
N          N       0.71769   0.21688   0.61463
N          N       0.71769   0.78312   0.88537
N          N       0.28231   0.21688   0.88537
C          C       0.00000   0.07828   0.75000
C          C       0.00000   0.92172   0.75000
C          C       0.00000   0.01594   0.75000
C          C       0.00000   0.98406   0.75000
H          H       0.00000   0.10226   0.75000
H          H       0.00000   0.89774   0.75000
C          C       0.50000   0.57829   0.75000
C          C       0.50000   0.42171   0.75000
C          C       0.50000   0.51594   0.75000
C          C       0.50000   0.48406   0.75000
H          H       0.50000   0.60227   0.75000
H          H       0.50000   0.39773   0.75000
