data_crystal

_cell_length_a    60.71160
_cell_length_b    44.98830
_cell_length_c    7.74360
_cell_angle_alpha 90.00000
_cell_angle_beta  90.00000
_cell_angle_gamma 90.00000

_space_group_name_Hall 'P 1'
_space_group_name_H-M_alt 'P 1'

loop_
_symmetry_equiv_pos_as_xyz
 'x,y,z'

loop_
_atom_site_label
_atom_site_type_symbol
_atom_site_fract_x
_atom_site_fract_y
_atom_site_fract_z
C          C       0.27061   0.26431   0.24849
C          C       0.72939   0.73569   0.24849
C          C       0.72939   0.26431   0.25151
C          C       0.27061   0.73569   0.25151
C          C       0.26704   0.23574   0.31411
C          C       0.73296   0.76426   0.31411
C          C       0.73296   0.23574   0.18589
C          C       0.26704   0.76426   0.18589
C          C       0.24649   0.22343   0.31757
C          C       0.75351   0.77657   0.31757
C          C       0.75351   0.22343   0.18243
C          C       0.24649   0.77657   0.18243
C          C       0.29236   0.27705   0.24516
C          C       0.70764   0.72295   0.24516
C          C       0.70764   0.27705   0.25484
C          C       0.29236   0.72295   0.25484
C          C       0.31055   0.28773   0.24310
C          C       0.68945   0.71227   0.24310
C          C       0.68945   0.28773   0.25690
C          C       0.31055   0.71227   0.25690
C          C       0.33225   0.30053   0.24194
C          C       0.66775   0.69947   0.24194
C          C       0.66775   0.30053   0.25806
C          C       0.33225   0.69947   0.25806
C          C       0.14898   0.21687   0.19315
C          C       0.85102   0.78313   0.19315
C          C       0.85102   0.21687   0.30685
C          C       0.14898   0.78313   0.30685
C          C       0.12810   0.20383   0.19008
C          C       0.87190   0.79617   0.19008
C          C       0.87190   0.20383   0.30992
C          C       0.12810   0.79617   0.30992
C          C       0.12495   0.17492   0.25377
C          C       0.87505   0.82508   0.25377
C          C       0.87505   0.17492   0.24623
C          C       0.12495   0.82508   0.24623
C          C       0.14307   0.15932   0.32199
C          C       0.85693   0.84068   0.32199
C          C       0.85693   0.15932   0.17801
C          C       0.14307   0.84068   0.17801
C          C       0.16395   0.17242   0.32500
C          C       0.83605   0.82758   0.32500
C          C       0.83605   0.17242   0.17500
C          C       0.16395   0.82758   0.17500
C          C       0.39673   0.33923   0.25545
C          C       0.60327   0.66077   0.25545
C          C       0.60327   0.33923   0.24454
C          C       0.39673   0.66077   0.24454
N          N       0.40026   0.36611   0.20049
N          N       0.59974   0.63389   0.20049
N          N       0.59974   0.36611   0.29951
N          N       0.40026   0.63389   0.29951
C          C       0.42070   0.38221   0.20729
C          C       0.57930   0.61779   0.20729
C          C       0.57930   0.38221   0.29270
C          C       0.42070   0.61779   0.29270
C          C       0.07797   0.09091   0.37857
C          C       0.92203   0.90909   0.37857
C          C       0.92203   0.09091   0.12143
C          C       0.07797   0.90909   0.12143
C          C       0.05872   0.07391   0.37429
C          C       0.94128   0.92609   0.37429
C          C       0.94128   0.07391   0.12571
C          C       0.05872   0.92609   0.12571
C          C       0.04076   0.08227   0.26997
C          C       0.95924   0.91773   0.26997
C          C       0.95924   0.08227   0.23003
C          C       0.04076   0.91773   0.23003
C          C       0.04203   0.10988   0.18389
C          C       0.95797   0.89012   0.18389
C          C       0.95797   0.10988   0.31611
C          C       0.04203   0.89012   0.31611
C          C       0.06079   0.12774   0.19636
C          C       0.93921   0.87226   0.19636
C          C       0.93921   0.12774   0.30364
C          C       0.06079   0.87226   0.30364
C          C       0.47972   0.43655   0.24376
C          C       0.52028   0.56345   0.24376
C          C       0.52028   0.43655   0.25624
C          C       0.47972   0.56345   0.25624
C          C       0.02028   0.03178   0.24951
C          C       0.97972   0.96822   0.24951
C          C       0.97972   0.03178   0.25049
C          C       0.02028   0.96822   0.25049
C          C       0.46012   0.48467   0.25737
C          C       0.53988   0.51533   0.25737
C          C       0.53988   0.48467   0.24263
C          C       0.46012   0.51533   0.24263
H          H       0.15115   0.23909   0.14189
H          H       0.84885   0.76091   0.14189
H          H       0.84885   0.23909   0.35810
H          H       0.15115   0.76091   0.35810
H          H       0.11442   0.21620   0.13617
H          H       0.88558   0.78380   0.13617
H          H       0.88558   0.21620   0.36382
H          H       0.11442   0.78380   0.36382
H          H       0.14114   0.13704   0.37258
H          H       0.85886   0.86296   0.37258
H          H       0.85886   0.13704   0.12742
H          H       0.14114   0.86296   0.12742
H          H       0.17774   0.16013   0.37760
H          H       0.82226   0.83987   0.37760
H          H       0.82226   0.16013   0.12240
H          H       0.17774   0.83987   0.12240
H          H       0.40989   0.32602   0.30961
H          H       0.59011   0.67398   0.30961
H          H       0.59011   0.32602   0.19038
H          H       0.40989   0.67398   0.19038
H          H       0.09178   0.08339   0.45555
H          H       0.90822   0.91661   0.45555
H          H       0.90822   0.08339   0.04445
H          H       0.09178   0.91661   0.04445
H          H       0.05789   0.05441   0.45541
H          H       0.94211   0.94559   0.45541
H          H       0.94211   0.05441   0.04459
H          H       0.05789   0.94559   0.04459
H          H       0.02889   0.11732   0.09993
H          H       0.97111   0.88268   0.09993
H          H       0.97111   0.11732   0.40007
H          H       0.02889   0.88268   0.40007
H          H       0.06103   0.14821   0.12369
H          H       0.93897   0.85179   0.12369
H          H       0.93897   0.14821   0.37631
H          H       0.06103   0.85179   0.37631
H          H       0.44426   0.47442   0.27481
H          H       0.55574   0.52558   0.27481
H          H       0.55574   0.47442   0.22519
H          H       0.44426   0.52558   0.22519
C          C       0.77189   0.76115   0.25575
C          C       0.22811   0.23885   0.25575
C          C       0.22811   0.76115   0.24425
C          C       0.77189   0.23885   0.24425
C          C       0.76879   0.73235   0.18900
C          C       0.23121   0.26765   0.18900
C          C       0.23121   0.73235   0.31100
C          C       0.76879   0.26765   0.31100
C          C       0.74759   0.71965   0.18540
C          C       0.25241   0.28035   0.18540
C          C       0.25241   0.71965   0.31461
C          C       0.74759   0.28035   0.31461
C          C       0.79346   0.77445   0.25848
C          C       0.20654   0.22555   0.25848
C          C       0.20654   0.77445   0.24151
C          C       0.79346   0.22555   0.24151
C          C       0.81151   0.78557   0.25988
C          C       0.18849   0.21443   0.25988
C          C       0.18849   0.78557   0.24012
C          C       0.81151   0.21443   0.24012
C          C       0.83305   0.79883   0.26006
C          C       0.16695   0.20117   0.26006
C          C       0.16695   0.79883   0.23994
C          C       0.83305   0.20117   0.23994
C          C       0.64992   0.71546   0.30889
C          C       0.35008   0.28454   0.30889
C          C       0.35008   0.71546   0.19111
C          C       0.64992   0.28454   0.19111
C          C       0.62890   0.70279   0.31128
C          C       0.37110   0.29721   0.31128
C          C       0.37110   0.70279   0.18872
C          C       0.62890   0.29721   0.18872
C          C       0.62549   0.67399   0.24682
C          C       0.37451   0.32601   0.24682
C          C       0.37451   0.67399   0.25318
C          C       0.62549   0.32601   0.25318
C          C       0.64347   0.65813   0.17844
C          C       0.35653   0.34187   0.17844
C          C       0.35653   0.65813   0.32156
C          C       0.64347   0.34187   0.32156
C          C       0.66447   0.67084   0.17616
C          C       0.33553   0.32916   0.17616
C          C       0.33553   0.67084   0.32384
C          C       0.66447   0.32916   0.32384
C          C       0.89715   0.83864   0.24471
C          C       0.10285   0.16136   0.24471
C          C       0.10285   0.83864   0.25529
C          C       0.89715   0.16136   0.25529
N          N       0.90046   0.86564   0.29850
N          N       0.09954   0.13436   0.29850
N          N       0.09954   0.86564   0.20150
N          N       0.90046   0.13436   0.20150
C          C       0.92081   0.88196   0.29124
C          C       0.07919   0.11804   0.29124
C          C       0.07919   0.88196   0.20876
C          C       0.92081   0.11804   0.20876
C          C       0.57798   0.59067   0.11990
C          C       0.42202   0.40933   0.11990
C          C       0.42202   0.59067   0.38010
C          C       0.57798   0.40933   0.38010
C          C       0.55867   0.57380   0.12432
C          C       0.44133   0.42620   0.12432
C          C       0.44133   0.57380   0.37568
C          C       0.55867   0.42620   0.37568
C          C       0.54076   0.58225   0.22885
C          C       0.45924   0.41775   0.22885
C          C       0.45924   0.58225   0.27114
C          C       0.54076   0.41775   0.27114
C          C       0.54211   0.60989   0.31462
C          C       0.45789   0.39011   0.31462
C          C       0.45789   0.60989   0.18538
C          C       0.54211   0.39011   0.18538
C          C       0.56093   0.62764   0.30201
C          C       0.43907   0.37236   0.30201
C          C       0.43907   0.62764   0.19799
C          C       0.56093   0.37236   0.19799
C          C       0.97971   0.93656   0.25579
C          C       0.02029   0.06344   0.25579
C          C       0.02029   0.93656   0.24421
C          C       0.97971   0.06344   0.24421
C          C       0.52027   0.53178   0.25028
C          C       0.47973   0.46822   0.25028
C          C       0.47973   0.53178   0.24972
C          C       0.52027   0.46822   0.24972
C          C       0.96012   0.98468   0.24247
C          C       0.03988   0.01532   0.24247
C          C       0.03988   0.98468   0.25753
C          C       0.96012   0.01532   0.25753
H          H       0.65231   0.73759   0.36081
H          H       0.34769   0.26241   0.36081
H          H       0.34769   0.73759   0.13919
H          H       0.65231   0.26241   0.13919
H          H       0.61534   0.71537   0.36531
H          H       0.38466   0.28463   0.36531
H          H       0.38466   0.71537   0.13469
H          H       0.61534   0.28463   0.13469
H          H       0.64133   0.63592   0.12726
H          H       0.35867   0.36408   0.12726
H          H       0.35867   0.63592   0.37274
H          H       0.64133   0.36408   0.37274
H          H       0.67816   0.65832   0.12352
H          H       0.32184   0.34168   0.12352
H          H       0.32184   0.65832   0.37648
H          H       0.67816   0.34168   0.37648
H          H       0.91043   0.82554   0.19148
H          H       0.08957   0.17446   0.19148
H          H       0.08957   0.82554   0.30852
H          H       0.91043   0.17446   0.30852
H          H       0.59176   0.58305   0.04297
H          H       0.40824   0.41695   0.04297
H          H       0.40824   0.58305   0.45703
H          H       0.59176   0.41695   0.45703
H          H       0.55778   0.55428   0.04342
H          H       0.44222   0.44572   0.04342
H          H       0.44222   0.55428   0.45659
H          H       0.55778   0.44572   0.45659
H          H       0.52900   0.61741   0.39857
H          H       0.47100   0.38259   0.39857
H          H       0.47100   0.61741   0.10143
H          H       0.52900   0.38259   0.10143
H          H       0.56124   0.64813   0.37449
H          H       0.43876   0.35187   0.37449
H          H       0.43876   0.64813   0.12551
H          H       0.56124   0.35187   0.12551
H          H       0.94426   0.97442   0.22487
H          H       0.05574   0.02558   0.22487
H          H       0.05574   0.97442   0.27514
H          H       0.94426   0.02558   0.27514
F          F       0.78617   0.71669   0.12660
F          F       0.21383   0.28331   0.12660
F          F       0.21383   0.71669   0.37340
F          F       0.78617   0.28331   0.37340
F          F       0.74484   0.69191   0.11974
F          F       0.25516   0.30809   0.11974
F          F       0.25516   0.69191   0.38025
F          F       0.74484   0.30809   0.38025
N          N       0.24625   0.80412   0.11639
N          N       0.75375   0.19588   0.11639
N          N       0.75375   0.80412   0.38361
N          N       0.24625   0.19588   0.38361
S          S       0.27185   0.81520   0.05722
S          S       0.72815   0.18480   0.05722
S          S       0.72815   0.81520   0.44278
S          S       0.27185   0.18480   0.44278
N          N       0.28264   0.78231   0.12243
N          N       0.71736   0.21769   0.12243
N          N       0.71736   0.78231   0.37757
N          N       0.28264   0.21769   0.37757
C          C       0.00000   0.07829   0.25000
C          C       0.00000   0.92171   0.25000
C          C       0.00000   0.01594   0.25000
C          C       0.00000   0.98406   0.25000
H          H       0.00000   0.10228   0.25000
H          H       0.00000   0.89772   0.25000
C          C       0.50000   0.57830   0.25000
C          C       0.50000   0.42170   0.25000
C          C       0.50000   0.51594   0.25000
C          C       0.50000   0.48406   0.25000
H          H       0.50000   0.60229   0.25000
H          H       0.50000   0.39771   0.25000
C          C       0.27061   0.26431   0.74849
C          C       0.72939   0.73569   0.74849
C          C       0.72939   0.26431   0.75151
C          C       0.27061   0.73569   0.75151
C          C       0.26704   0.23574   0.81411
C          C       0.73296   0.76426   0.81411
C          C       0.73296   0.23574   0.68589
C          C       0.26704   0.76426   0.68589
C          C       0.24649   0.22343   0.81757
C          C       0.75351   0.77657   0.81757
C          C       0.75351   0.22343   0.68243
C          C       0.24649   0.77657   0.68243
C          C       0.29236   0.27705   0.74516
C          C       0.70764   0.72295   0.74516
C          C       0.70764   0.27705   0.75484
C          C       0.29236   0.72295   0.75484
C          C       0.31055   0.28773   0.74310
C          C       0.68945   0.71227   0.74310
C          C       0.68945   0.28773   0.75690
C          C       0.31055   0.71227   0.75690
C          C       0.33225   0.30053   0.74194
C          C       0.66775   0.69947   0.74194
C          C       0.66775   0.30053   0.75805
C          C       0.33225   0.69947   0.75805
C          C       0.14898   0.21687   0.69315
C          C       0.85102   0.78313   0.69315
C          C       0.85102   0.21687   0.80684
C          C       0.14898   0.78313   0.80684
C          C       0.12810   0.20383   0.69008
C          C       0.87190   0.79617   0.69008
C          C       0.87190   0.20383   0.80992
C          C       0.12810   0.79617   0.80992
C          C       0.12495   0.17492   0.75377
C          C       0.87505   0.82508   0.75377
C          C       0.87505   0.17492   0.74623
C          C       0.12495   0.82508   0.74623
C          C       0.14307   0.15932   0.82199
C          C       0.85693   0.84068   0.82199
C          C       0.85693   0.15932   0.67801
C          C       0.14307   0.84068   0.67801
C          C       0.16395   0.17242   0.82500
C          C       0.83605   0.82758   0.82500
C          C       0.83605   0.17242   0.67500
C          C       0.16395   0.82758   0.67500
C          C       0.39673   0.33923   0.75545
C          C       0.60327   0.66077   0.75545
C          C       0.60327   0.33923   0.74455
C          C       0.39673   0.66077   0.74455
N          N       0.40026   0.36611   0.70049
N          N       0.59974   0.63389   0.70049
N          N       0.59974   0.36611   0.79951
N          N       0.40026   0.63389   0.79951
C          C       0.42070   0.38221   0.70729
C          C       0.57930   0.61779   0.70729
C          C       0.57930   0.38221   0.79270
C          C       0.42070   0.61779   0.79270
C          C       0.07797   0.09091   0.87857
C          C       0.92203   0.90909   0.87857
C          C       0.92203   0.09091   0.62143
C          C       0.07797   0.90909   0.62143
C          C       0.05872   0.07391   0.87430
C          C       0.94128   0.92609   0.87430
C          C       0.94128   0.07391   0.62570
C          C       0.05872   0.92609   0.62570
C          C       0.04076   0.08227   0.76996
C          C       0.95924   0.91773   0.76996
C          C       0.95924   0.08227   0.73003
C          C       0.04076   0.91773   0.73003
C          C       0.04203   0.10988   0.68389
C          C       0.95797   0.89012   0.68389
C          C       0.95797   0.10988   0.81611
C          C       0.04203   0.89012   0.81611
C          C       0.06079   0.12774   0.69636
C          C       0.93921   0.87226   0.69636
C          C       0.93921   0.12774   0.80364
C          C       0.06079   0.87226   0.80364
C          C       0.47972   0.43655   0.74376
C          C       0.52028   0.56345   0.74376
C          C       0.52028   0.43655   0.75624
C          C       0.47972   0.56345   0.75624
C          C       0.02028   0.03178   0.74951
C          C       0.97972   0.96822   0.74951
C          C       0.97972   0.03178   0.75048
C          C       0.02028   0.96822   0.75048
C          C       0.46012   0.48467   0.75736
C          C       0.53988   0.51533   0.75736
C          C       0.53988   0.48467   0.74264
C          C       0.46012   0.51533   0.74264
H          H       0.15115   0.23909   0.64189
H          H       0.84885   0.76091   0.64189
H          H       0.84885   0.23909   0.85811
H          H       0.15115   0.76091   0.85811
H          H       0.11442   0.21620   0.63617
H          H       0.88558   0.78380   0.63617
H          H       0.88558   0.21620   0.86383
H          H       0.11442   0.78380   0.86383
H          H       0.14114   0.13704   0.87258
H          H       0.85886   0.86296   0.87258
H          H       0.85886   0.13704   0.62741
H          H       0.14114   0.86296   0.62741
H          H       0.17774   0.16013   0.87760
H          H       0.82226   0.83987   0.87760
H          H       0.82226   0.16013   0.62240
H          H       0.17774   0.83987   0.62240
H          H       0.40989   0.32602   0.80961
H          H       0.59011   0.67398   0.80961
H          H       0.59011   0.32602   0.69039
H          H       0.40989   0.67398   0.69039
H          H       0.09178   0.08339   0.95555
H          H       0.90822   0.91661   0.95555
H          H       0.90822   0.08339   0.54445
H          H       0.09178   0.91661   0.54445
H          H       0.05789   0.05441   0.95540
H          H       0.94211   0.94559   0.95540
H          H       0.94211   0.05441   0.54459
H          H       0.05789   0.94559   0.54459
H          H       0.02889   0.11732   0.59993
H          H       0.97111   0.88268   0.59993
H          H       0.97111   0.11732   0.90006
H          H       0.02889   0.88268   0.90006
H          H       0.06103   0.14821   0.62369
H          H       0.93897   0.85179   0.62369
H          H       0.93897   0.14821   0.87631
H          H       0.06103   0.85179   0.87631
H          H       0.44426   0.47442   0.77481
H          H       0.55574   0.52558   0.77481
H          H       0.55574   0.47442   0.72518
H          H       0.44426   0.52558   0.72518
C          C       0.77189   0.76115   0.75575
C          C       0.22811   0.23885   0.75575
C          C       0.22811   0.76115   0.74425
C          C       0.77189   0.23885   0.74425
C          C       0.76879   0.73235   0.68900
C          C       0.23121   0.26765   0.68900
C          C       0.23121   0.73235   0.81099
C          C       0.76879   0.26765   0.81099
C          C       0.74759   0.71965   0.68539
C          C       0.25241   0.28035   0.68539
C          C       0.25241   0.71965   0.81460
C          C       0.74759   0.28035   0.81460
C          C       0.79346   0.77445   0.75848
C          C       0.20654   0.22555   0.75848
C          C       0.20654   0.77445   0.74151
C          C       0.79346   0.22555   0.74151
C          C       0.81151   0.78557   0.75988
C          C       0.18849   0.21443   0.75988
C          C       0.18849   0.78557   0.74012
C          C       0.81151   0.21443   0.74012
C          C       0.83305   0.79883   0.76006
C          C       0.16695   0.20117   0.76006
C          C       0.16695   0.79883   0.73993
C          C       0.83305   0.20117   0.73993
C          C       0.64992   0.71546   0.80890
C          C       0.35008   0.28454   0.80890
C          C       0.35008   0.71546   0.69110
C          C       0.64992   0.28454   0.69110
C          C       0.62890   0.70279   0.81127
C          C       0.37110   0.29721   0.81127
C          C       0.37110   0.70279   0.68873
C          C       0.62890   0.29721   0.68873
C          C       0.62549   0.67399   0.74682
C          C       0.37451   0.32601   0.74682
C          C       0.37451   0.67399   0.75318
C          C       0.62549   0.32601   0.75318
C          C       0.64347   0.65813   0.67844
C          C       0.35653   0.34187   0.67844
C          C       0.35653   0.65813   0.82156
C          C       0.64347   0.34187   0.82156
C          C       0.66447   0.67084   0.67616
C          C       0.33553   0.32916   0.67616
C          C       0.33553   0.67084   0.82384
C          C       0.66447   0.32916   0.82384
C          C       0.89715   0.83864   0.74470
C          C       0.10285   0.16136   0.74470
C          C       0.10285   0.83864   0.75529
C          C       0.89715   0.16136   0.75529
N          N       0.90046   0.86564   0.79850
N          N       0.09954   0.13436   0.79850
N          N       0.09954   0.86564   0.70150
N          N       0.90046   0.13436   0.70150
C          C       0.92081   0.88196   0.79124
C          C       0.07919   0.11804   0.79124
C          C       0.07919   0.88196   0.70876
C          C       0.92081   0.11804   0.70876
C          C       0.57798   0.59067   0.61990
C          C       0.42202   0.40933   0.61990
C          C       0.42202   0.59067   0.88010
C          C       0.57798   0.40933   0.88010
C          C       0.55867   0.57380   0.62432
C          C       0.44133   0.42620   0.62432
C          C       0.44133   0.57380   0.87568
C          C       0.55867   0.42620   0.87568
C          C       0.54076   0.58225   0.72885
C          C       0.45924   0.41775   0.72885
C          C       0.45924   0.58225   0.77114
C          C       0.54076   0.41775   0.77114
C          C       0.54211   0.60989   0.81462
C          C       0.45789   0.39011   0.81462
C          C       0.45789   0.60989   0.68538
C          C       0.54211   0.39011   0.68538
C          C       0.56093   0.62764   0.80201
C          C       0.43907   0.37236   0.80201
C          C       0.43907   0.62764   0.69798
C          C       0.56093   0.37236   0.69798
C          C       0.97971   0.93656   0.75579
C          C       0.02029   0.06344   0.75579
C          C       0.02029   0.93656   0.74421
C          C       0.97971   0.06344   0.74421
C          C       0.52027   0.53178   0.75028
C          C       0.47973   0.46822   0.75028
C          C       0.47973   0.53178   0.74972
C          C       0.52027   0.46822   0.74972
C          C       0.96012   0.98468   0.74247
C          C       0.03988   0.01532   0.74247
C          C       0.03988   0.98468   0.75753
C          C       0.96012   0.01532   0.75753
H          H       0.65231   0.73759   0.86081
H          H       0.34769   0.26241   0.86081
H          H       0.34769   0.73759   0.63919
H          H       0.65231   0.26241   0.63919
H          H       0.61534   0.71537   0.86531
H          H       0.38466   0.28463   0.86531
H          H       0.38466   0.71537   0.63469
H          H       0.61534   0.28463   0.63469
H          H       0.64133   0.63592   0.62726
H          H       0.35867   0.36408   0.62726
H          H       0.35867   0.63592   0.87273
H          H       0.64133   0.36408   0.87273
H          H       0.67816   0.65832   0.62352
H          H       0.32184   0.34168   0.62352
H          H       0.32184   0.65832   0.87648
H          H       0.67816   0.34168   0.87648
H          H       0.91043   0.82554   0.69147
H          H       0.08957   0.17446   0.69147
H          H       0.08957   0.82554   0.80853
H          H       0.91043   0.17446   0.80853
H          H       0.59176   0.58305   0.54297
H          H       0.40824   0.41695   0.54297
H          H       0.40824   0.58305   0.95703
H          H       0.59176   0.41695   0.95703
H          H       0.55778   0.55428   0.54341
H          H       0.44222   0.44572   0.54341
H          H       0.44222   0.55428   0.95659
H          H       0.55778   0.44572   0.95659
H          H       0.52900   0.61741   0.89857
H          H       0.47100   0.38259   0.89857
H          H       0.47100   0.61741   0.60143
H          H       0.52900   0.38259   0.60143
H          H       0.56124   0.64813   0.87449
H          H       0.43876   0.35187   0.87449
H          H       0.43876   0.64813   0.62551
H          H       0.56124   0.35187   0.62551
H          H       0.94426   0.97442   0.72486
H          H       0.05574   0.02558   0.72486
H          H       0.05574   0.97442   0.77514
H          H       0.94426   0.02558   0.77514
F          F       0.78617   0.71669   0.62660
F          F       0.21383   0.28331   0.62660
F          F       0.21383   0.71669   0.87340
F          F       0.78617   0.28331   0.87340
F          F       0.74484   0.69191   0.61974
F          F       0.25516   0.30809   0.61974
F          F       0.25516   0.69191   0.88026
F          F       0.74484   0.30809   0.88026
N          N       0.24625   0.80412   0.61638
N          N       0.75375   0.19588   0.61638
N          N       0.75375   0.80412   0.88361
N          N       0.24625   0.19588   0.88361
S          S       0.27185   0.81520   0.55722
S          S       0.72815   0.18480   0.55722
S          S       0.72815   0.81520   0.94277
S          S       0.27185   0.18480   0.94277
N          N       0.28264   0.78231   0.62243
N          N       0.71736   0.21769   0.62243
N          N       0.71736   0.78231   0.87757
N          N       0.28264   0.21769   0.87757
C          C       0.00000   0.07829   0.75000
C          C       0.00000   0.92171   0.75000
C          C       0.00000   0.01594   0.75000
C          C       0.00000   0.98406   0.75000
H          H       0.00000   0.10228   0.75000
H          H       0.00000   0.89772   0.75000
C          C       0.50000   0.57830   0.75000
C          C       0.50000   0.42170   0.75000
C          C       0.50000   0.51594   0.75000
C          C       0.50000   0.48406   0.75000
H          H       0.50000   0.60229   0.75000
H          H       0.50000   0.39771   0.75000
