data_crystal

_cell_length_a    49.63890
_cell_length_b    15.70200
_cell_length_c    50.65600
_cell_angle_alpha 90.00000
_cell_angle_beta  120.00000
_cell_angle_gamma 90.00000

_symmetry_space_group_name_Hall 'P 1'
_symmetry_space_group_name_H-M  'P 1'

loop_
_symmetry_equiv_pos_as_xyz
 'x,y,z'

loop_
_atom_site_label
_atom_site_type_symbol
_atom_site_fract_x
_atom_site_fract_y
_atom_site_fract_z
C          C       0.58833   0.45171   0.32605
C          C       0.58833   0.54829   0.32605
N          N       0.96767   0.14613   0.65393
N          N       0.96767   0.85387   0.65393
C          C       0.02280   0.16383   0.65521
C          C       0.02280   0.83617   0.65521
C          C       0.07962   0.18916   0.68385
C          C       0.07962   0.81084   0.68385
C          C       0.05230   0.18215   0.65588
C          C       0.05230   0.81785   0.65588
C          C       0.05302   0.19934   0.62868
C          C       0.05302   0.80066   0.62868
C          C       0.08051   0.22450   0.62941
C          C       0.08051   0.77550   0.62941
C          C       0.10763   0.23302   0.65733
C          C       0.10763   0.76698   0.65733
C          C       0.10711   0.21445   0.68460
C          C       0.10711   0.78555   0.68460
C          C       0.02020   0.13420   0.73800
C          C       0.02020   0.86580   0.73800
C          C       0.96366   0.11086   0.73657
C          C       0.96366   0.88914   0.73657
C          C       0.97830   0.10385   0.87219
C          C       0.97830   0.89615   0.87219
C          C       0.98004   0.11993   0.84553
C          C       0.98004   0.88007   0.84553
C          C       0.69291   0.45174   0.36064
C          C       0.69291   0.54826   0.36064
C          C       0.71447   0.59637   0.38593
C          C       0.71447   0.40363   0.38593
C          C       0.23741   0.59982   0.67958
C          C       0.23741   0.40018   0.67958
C          C       0.21120   0.62408   0.65233
C          C       0.21120   0.37592   0.65233
C          C       0.18631   0.66555   0.65310
C          C       0.18631   0.33445   0.65310
C          C       0.18747   0.68324   0.68115
C          C       0.18747   0.31676   0.68115
C          C       0.21388   0.66031   0.70842
C          C       0.21388   0.33969   0.70842
C          C       0.23882   0.61849   0.70767
C          C       0.23882   0.38151   0.70767
C          C       0.16064   0.72019   0.68228
C          C       0.16064   0.27981   0.68228
N          N       0.13493   0.73501   0.65745
N          N       0.13493   0.26499   0.65745
C          C       0.73618   0.45171   0.41154
C          C       0.73618   0.54829   0.41154
N          N       0.68406   0.14989   0.02440
N          N       0.68406   0.85011   0.02440
C          C       0.63002   0.16358   0.97121
C          C       0.63002   0.83642   0.97121
C          C       0.60109   0.18888   0.91471
C          C       0.60109   0.81112   0.91471
C          C       0.60120   0.18198   0.94268
C          C       0.60120   0.81802   0.94268
C          C       0.57409   0.20091   0.94382
C          C       0.57409   0.79909   0.94382
C          C       0.54737   0.22755   0.91753
C          C       0.54737   0.77245   0.91753
C          C       0.54738   0.23605   0.88974
C          C       0.54738   0.76395   0.88974
C          C       0.57435   0.21577   0.88837
C          C       0.57435   0.78423   0.88837
C          C       0.71221   0.11417   0.96832
C          C       0.71221   0.88583   0.96832
C          C       0.76882   0.12959   0.02172
C          C       0.76882   0.87041   0.02172
C          C       0.90562   0.11355   0.03250
C          C       0.90562   0.88645   0.03250
C          C       0.87941   0.12999   0.03539
C          C       0.87941   0.87001   0.03539
C          C       0.67099   0.45172   0.30612
C          C       0.67099   0.54828   0.30612
C          C       0.67325   0.59634   0.28335
C          C       0.67325   0.40366   0.28335
C          C       0.43857   0.59919   0.76319
C          C       0.43857   0.40081   0.76319
C          C       0.43797   0.62383   0.78989
C          C       0.43797   0.37617   0.78989
C          C       0.46385   0.66372   0.81409
C          C       0.46385   0.33628   0.81409
C          C       0.49052   0.67900   0.81175
C          C       0.49052   0.32100   0.81175
C          C       0.49100   0.65477   0.78497
C          C       0.49100   0.34523   0.78497
C          C       0.46513   0.61470   0.76078
C          C       0.46513   0.38530   0.76078
C          C       0.51856   0.71586   0.83745
C          C       0.51856   0.28414   0.83745
N          N       0.52015   0.73115   0.86366
N          N       0.52015   0.26885   0.86366
C          C       0.67572   0.45169   0.26045
C          C       0.67572   0.54831   0.26045
N          N       0.34097   0.14550   0.31635
N          N       0.34097   0.85450   0.31635
C          C       0.34059   0.15761   0.37039
C          C       0.34059   0.84239   0.37039
C          C       0.31291   0.18411   0.40032
C          C       0.31291   0.81589   0.40032
C          C       0.34058   0.17433   0.39947
C          C       0.34058   0.82567   0.39947
C          C       0.36862   0.18872   0.42626
C          C       0.36862   0.81128   0.42626
C          C       0.36909   0.21384   0.45336
C          C       0.36909   0.78616   0.45336
C          C       0.34157   0.22536   0.45412
C          C       0.34157   0.77464   0.45412
C          C       0.31337   0.20952   0.42749
C          C       0.31337   0.79048   0.42749
C          C       0.25684   0.11395   0.28873
C          C       0.25684   0.88605   0.28873
C          C       0.25552   0.13354   0.23261
C          C       0.25552   0.86646   0.23261
C          C       0.13441   0.10933   0.09699
C          C       0.13441   0.89067   0.09699
C          C       0.16269   0.12738   0.12293
C          C       0.16269   0.87262   0.12293
C          C       0.63820   0.45173   0.32891
C          C       0.63820   0.54827   0.32891
C          C       0.61345   0.59638   0.32759
C          C       0.61345   0.40362   0.32759
C          C       0.32547   0.59951   0.56437
C          C       0.32547   0.40049   0.56437
C          C       0.35229   0.62775   0.56415
C          C       0.35229   0.37225   0.56415
C          C       0.35030   0.66903   0.53809
C          C       0.35030   0.33097   0.53809
C          C       0.32147   0.68208   0.51209
C          C       0.32147   0.31792   0.51209
C          C       0.29473   0.65461   0.51254
C          C       0.29473   0.34539   0.51254
C          C       0.29670   0.61334   0.53856
C          C       0.29670   0.38666   0.53856
C          C       0.31878   0.71988   0.48379
C          C       0.31878   0.28012   0.48379
N          N       0.34296   0.74143   0.48164
N          N       0.34296   0.25857   0.48164
C          C       0.32754   0.54828   0.59048
C          C       0.32754   0.45172   0.59048
N          N       0.65667   0.85294   0.97069
N          N       0.65667   0.14706   0.97069
C          C       0.65744   0.83408   0.02510
C          C       0.65744   0.16592   0.02510
C          C       0.68541   0.80891   0.08158
C          C       0.68541   0.19109   0.08158
C          C       0.65760   0.81542   0.05407
C          C       0.65760   0.18458   0.05407
C          C       0.62980   0.79755   0.05397
C          C       0.62980   0.20245   0.05397
C          C       0.62973   0.77257   0.08082
C          C       0.62973   0.22743   0.08082
C          C       0.65744   0.76492   0.10814
C          C       0.65744   0.23508   0.10814
C          C       0.68536   0.78375   0.10847
C          C       0.68536   0.21625   0.10847
C          C       0.74137   0.86622   0.02313
C          C       0.74137   0.13378   0.02313
C          C       0.73959   0.89016   0.96691
C          C       0.73959   0.10984   0.96691
C          C       0.87374   0.89684   0.97761
C          C       0.87374   0.10316   0.97761
C          C       0.84752   0.88095   0.98053
C          C       0.84752   0.11905   0.98053
C          C       0.36243   0.54825   0.69463
C          C       0.36243   0.45175   0.69463
C          C       0.38740   0.40362   0.71685
C          C       0.38740   0.59638   0.71685
C          C       0.67708   0.40032   0.23604
C          C       0.67708   0.59968   0.23604
C          C       0.64978   0.37617   0.20980
C          C       0.64978   0.62383   0.20980
C          C       0.65095   0.33454   0.18532
C          C       0.65095   0.66546   0.18532
C          C       0.67947   0.31678   0.18698
C          C       0.67947   0.68322   0.18698
C          C       0.70673   0.33964   0.21342
C          C       0.70673   0.66036   0.21342
C          C       0.70557   0.38148   0.23790
C          C       0.70557   0.61852   0.23790
C          C       0.68129   0.28021   0.16071
C          C       0.68129   0.71979   0.16071
N          N       0.65667   0.26643   0.13481
N          N       0.65667   0.73357   0.13481
C          C       0.41267   0.54828   0.73926
C          C       0.41267   0.45172   0.73926
N          N       0.02175   0.85186   0.68141
N          N       0.02175   0.14814   0.68141
C          C       0.96848   0.83776   0.62763
C          C       0.96848   0.16224   0.62763
C          C       0.91182   0.80949   0.59911
C          C       0.91182   0.19051   0.59911
C          C       0.93982   0.81931   0.59897
C          C       0.93982   0.18069   0.59897
C          C       0.94081   0.80356   0.57183
C          C       0.94081   0.19644   0.57183
C          C       0.91425   0.77738   0.54529
C          C       0.91425   0.22262   0.54529
C          C       0.88644   0.76611   0.54556
C          C       0.88644   0.23389   0.54556
C          C       0.88528   0.78302   0.57260
C          C       0.88528   0.21698   0.57260
C          C       0.96494   0.88529   0.70928
C          C       0.96494   0.11471   0.70928
C          C       0.01892   0.86944   0.76527
C          C       0.01892   0.13056   0.76527
C          C       0.03384   0.88703   0.90207
C          C       0.03384   0.11297   0.90207
C          C       0.03556   0.87031   0.87543
C          C       0.03556   0.12969   0.87543
C          C       0.30746   0.54829   0.67232
C          C       0.30746   0.45171   0.67232
C          C       0.28486   0.40372   0.67522
C          C       0.28486   0.59628   0.67522
C          C       0.75984   0.40070   0.43751
C          C       0.75984   0.59930   0.43751
C          C       0.78670   0.37412   0.43715
C          C       0.78670   0.62588   0.43715
C          C       0.81080   0.33434   0.46300
C          C       0.81080   0.66566   0.46300
C          C       0.80822   0.32105   0.48940
C          C       0.80822   0.67895   0.48940
C          C       0.78122   0.34676   0.48964
C          C       0.78122   0.65324   0.48964
C          C       0.75708   0.38677   0.46376
C          C       0.75708   0.61323   0.46376
C          C       0.83403   0.28477   0.51731
C          C       0.83403   0.71523   0.51731
N          N       0.86014   0.26632   0.51855
N          N       0.86014   0.73368   0.51855
C          C       0.26213   0.54837   0.67835
C          C       0.26213   0.45163   0.67835
N          N       0.31386   0.85668   0.34403
N          N       0.31386   0.14332   0.34403
C          C       0.36783   0.84079   0.34268
C          C       0.36783   0.15921   0.34268
C          C       0.39753   0.81157   0.31488
C          C       0.39753   0.18843   0.31488
C          C       0.39702   0.82384   0.34241
C          C       0.39702   0.17616   0.34241
C          C       0.42440   0.81235   0.37014
C          C       0.42440   0.18765   0.37014
C          C       0.45171   0.78762   0.37046
C          C       0.45171   0.21238   0.37046
C          C       0.45213   0.77365   0.34307
C          C       0.45213   0.22635   0.34307
C          C       0.42490   0.78659   0.31519
C          C       0.42490   0.21341   0.31519
C          C       0.28363   0.86383   0.25980
C          C       0.28363   0.13617   0.25980
C          C       0.22873   0.88891   0.26156
C          C       0.22873   0.11109   0.26156
C          C       0.10947   0.89254   0.12821
C          C       0.10947   0.10746   0.12821
C          C       0.13776   0.87498   0.15415
C          C       0.13776   0.12502   0.15415
C          C       0.33094   0.54824   0.64017
C          C       0.33094   0.45176   0.64017
C          C       0.32933   0.40364   0.61549
C          C       0.32933   0.59636   0.61549
C          C       0.56228   0.40047   0.32463
C          C       0.56228   0.59953   0.32463
C          C       0.56311   0.36985   0.35152
C          C       0.56311   0.63015   0.35152
C          C       0.53707   0.32895   0.35030
C          C       0.53707   0.67105   0.35030
C          C       0.51007   0.31862   0.32216
C          C       0.51007   0.68138   0.32216
C          C       0.50949   0.34856   0.29537
C          C       0.50949   0.65144   0.29537
C          C       0.53545   0.38944   0.29657
C          C       0.53545   0.61056   0.29657
C          C       0.48170   0.28130   0.32013
C          C       0.48170   0.71870   0.32013
N          N       0.47993   0.25887   0.34427
N          N       0.47993   0.74113   0.34427
C          C       0.92786   0.04851   0.00195
C          C       0.92786   0.95149   0.00195
C          C       0.08133   0.04845   0.07522
C          C       0.08133   0.95155   0.07522
C          C       0.00433   0.04851   0.92576
C          C       0.00433   0.95149   0.92576
C          C       0.99430   0.13827   0.68098
C          C       0.99430   0.86173   0.68098
N          N       0.99600   0.17096   0.62835
N          N       0.99600   0.82904   0.62835
C          C       0.99318   0.12716   0.70974
C          C       0.99318   0.87284   0.70974
C          C       0.99053   0.11988   0.76472
C          C       0.99053   0.88012   0.76472
C          C       0.00524   0.09795   0.90053
C          C       0.00524   0.90205   0.90053
C          C       0.00880   0.13004   0.84697
C          C       0.00880   0.86996   0.84697
C          C       0.01169   0.13368   0.81913
C          C       0.01169   0.86632   0.81913
N          N       0.98835   0.11873   0.79228
N          N       0.98835   0.88127   0.79228
C          C       0.68379   0.13931   0.99728
C          C       0.68379   0.86069   0.99728
N          N       0.63056   0.17274   0.99837
N          N       0.63056   0.82726   0.99837
C          C       0.71283   0.12708   0.99635
C          C       0.71283   0.87292   0.99635
C          C       0.76801   0.11872   0.99344
C          C       0.76801   0.88128   0.99344
C          C       0.90288   0.09793   0.00367
C          C       0.90288   0.90207   0.00367
C          C       0.85019   0.12955   0.00956
C          C       0.85019   0.87045   0.00956
C          C       0.82280   0.13277   0.01356
C          C       0.82280   0.86723   0.01356
N          N       0.79550   0.11778   0.99084
N          N       0.79550   0.88222   0.99084
C          C       0.31392   0.13659   0.31688
C          C       0.31392   0.86341   0.31688
N          N       0.36734   0.16545   0.36951
N          N       0.36734   0.83455   0.36951
C          C       0.28451   0.12710   0.28812
C          C       0.28451   0.87290   0.28812
C          C       0.22782   0.12185   0.23338
C          C       0.22782   0.87815   0.23338
C          C       0.10773   0.09773   0.09956
C          C       0.10773   0.90227   0.09956
C          C       0.16464   0.13255   0.15172
C          C       0.16464   0.86745   0.15172
C          C       0.19513   0.13678   0.17904
C          C       0.19513   0.86322   0.17904
N          N       0.19855   0.12108   0.20602
N          N       0.19855   0.87892   0.20602
C          C       0.66739   0.40823   0.33184
C          C       0.66739   0.59177   0.33184
C          C       0.33357   0.59175   0.66900
C          C       0.33357   0.40825   0.66900
C          C       0.00443   0.90344   0.95003
C          C       0.00443   0.09656   0.95003
C          C       0.95239   0.90347   0.00215
C          C       0.95239   0.09653   0.00215
C          C       0.05668   0.90345   0.05196
C          C       0.05668   0.09655   0.05196
C          C       0.00439   0.90832   0.00178
C          C       0.00439   0.09168   0.00178
C          C       0.97663   0.95173   0.00220
C          C       0.97663   0.04827   0.00220
C          C       0.03217   0.95171   0.02895
C          C       0.03217   0.04829   0.02895
C          C       0.00437   0.95171   0.97402
C          C       0.00437   0.04829   0.97402
H          H       0.07940   0.17430   0.70586
H          H       0.07940   0.82570   0.70586
H          H       0.03114   0.19279   0.60589
H          H       0.03114   0.80721   0.60589
H          H       0.08082   0.23800   0.60736
H          H       0.08082   0.76200   0.60736
H          H       0.12922   0.22020   0.70722
H          H       0.12922   0.77980   0.70722
H          H       0.04347   0.14297   0.73899
H          H       0.04347   0.85703   0.73899
H          H       0.94048   0.10029   0.73562
H          H       0.94048   0.89971   0.73562
H          H       0.95489   0.09547   0.87093
H          H       0.95489   0.90453   0.87093
H          H       0.95804   0.12474   0.82276
H          H       0.95804   0.87526   0.82276
H          H       0.71518   0.66894   0.38667
H          H       0.71518   0.33106   0.38667
H          H       0.21006   0.61024   0.62963
H          H       0.21006   0.38976   0.62963
H          H       0.16514   0.68497   0.63105
H          H       0.16514   0.31503   0.63105
H          H       0.21522   0.67539   0.73113
H          H       0.21522   0.32461   0.73113
H          H       0.26005   0.59988   0.72979
H          H       0.26005   0.40012   0.72979
H          H       0.16228   0.73609   0.70506
H          H       0.16228   0.26391   0.70506
H          H       0.62273   0.17268   0.91327
H          H       0.62273   0.82732   0.91327
H          H       0.57364   0.19475   0.96612
H          H       0.57364   0.80525   0.96612
H          H       0.52545   0.24247   0.91860
H          H       0.52545   0.75753   0.91860
H          H       0.57453   0.22113   0.86592
H          H       0.57453   0.77887   0.86592
H          H       0.68922   0.10719   0.94661
H          H       0.68922   0.89281   0.94661
H          H       0.79189   0.13495   0.04342
H          H       0.79189   0.86505   0.04342
H          H       0.92939   0.11268   0.05347
H          H       0.92939   0.88732   0.05347
H          H       0.88191   0.14365   0.05867
H          H       0.88191   0.85635   0.05867
H          H       0.67318   0.66890   0.28263
H          H       0.67318   0.33110   0.28263
H          H       0.41651   0.61165   0.79211
H          H       0.41651   0.38835   0.79211
H          H       0.46303   0.68339   0.83543
H          H       0.46303   0.31661   0.83543
H          H       0.51236   0.66738   0.78263
H          H       0.51236   0.33262   0.78263
H          H       0.46590   0.59512   0.73940
H          H       0.46590   0.40488   0.73940
H          H       0.53945   0.73162   0.83464
H          H       0.53945   0.26838   0.83464
H          H       0.28993   0.17161   0.37914
H          H       0.28993   0.82839   0.37914
H          H       0.39144   0.18010   0.42629
H          H       0.39144   0.81990   0.42629
H          H       0.39203   0.22484   0.47478
H          H       0.39203   0.77516   0.47478
H          H       0.29082   0.21741   0.42806
H          H       0.29082   0.78259   0.42806
H          H       0.25717   0.10558   0.31133
H          H       0.25717   0.89442   0.31133
H          H       0.25512   0.14086   0.20995
H          H       0.25512   0.85914   0.20995
H          H       0.13317   0.10413   0.07389
H          H       0.13317   0.89587   0.07389
H          H       0.18427   0.13797   0.12079
H          H       0.18427   0.86203   0.12079
H          H       0.61271   0.66894   0.32770
H          H       0.61271   0.33106   0.32770
H          H       0.37584   0.61768   0.58492
H          H       0.37584   0.38232   0.58492
H          H       0.37214   0.69179   0.53815
H          H       0.37214   0.30821   0.53815
H          H       0.27113   0.66529   0.49192
H          H       0.27113   0.33471   0.49192
H          H       0.27469   0.59146   0.53834
H          H       0.27469   0.40854   0.53834
H          H       0.29508   0.73056   0.46330
H          H       0.29508   0.26944   0.46330
H          H       0.70823   0.82396   0.08231
H          H       0.70823   0.17604   0.08231
H          H       0.60695   0.80315   0.03204
H          H       0.60695   0.19685   0.03204
H          H       0.60700   0.75843   0.08040
H          H       0.60700   0.24157   0.08040
H          H       0.70801   0.77859   0.13063
H          H       0.70801   0.22141   0.13063
H          H       0.74210   0.85742   0.04589
H          H       0.74210   0.14258   0.04589
H          H       0.73885   0.90089   0.94422
H          H       0.73885   0.09911   0.94422
H          H       0.87144   0.90549   0.95417
H          H       0.87144   0.09451   0.95417
H          H       0.82390   0.87644   0.95945
H          H       0.82390   0.12356   0.95945
H          H       0.38815   0.33105   0.71758
H          H       0.38815   0.66895   0.71758
H          H       0.62641   0.38996   0.20803
H          H       0.62641   0.61004   0.20803
H          H       0.62869   0.31547   0.16426
H          H       0.62869   0.68453   0.16426
H          H       0.73012   0.32467   0.21543
H          H       0.73012   0.67533   0.21543
H          H       0.72790   0.39966   0.25905
H          H       0.72790   0.60034   0.25905
H          H       0.70465   0.26347   0.16294
H          H       0.70465   0.73653   0.16294
H          H       0.91052   0.82293   0.62067
H          H       0.91052   0.17707   0.62067
H          H       0.96332   0.81203   0.57124
H          H       0.96332   0.18797   0.57124
H          H       0.91545   0.76538   0.52360
H          H       0.91545   0.23462   0.52360
H          H       0.86251   0.77496   0.57271
H          H       0.86251   0.22504   0.57271
H          H       0.94282   0.89237   0.68673
H          H       0.94282   0.10763   0.68673
H          H       0.04107   0.86368   0.78787
H          H       0.04107   0.13632   0.78787
H          H       0.05575   0.88839   0.92499
H          H       0.05575   0.11161   0.92499
H          H       0.05882   0.85693   0.87690
H          H       0.05882   0.14307   0.87690
H          H       0.28410   0.33115   0.67517
H          H       0.28410   0.66885   0.67517
H          H       0.78911   0.38456   0.41604
H          H       0.78911   0.61544   0.41604
H          H       0.83254   0.31268   0.46266
H          H       0.83254   0.68732   0.46266
H          H       0.77868   0.33550   0.51064
H          H       0.77868   0.66450   0.51064
H          H       0.73535   0.40772   0.46427
H          H       0.73535   0.59228   0.46427
H          H       0.83113   0.27270   0.53807
H          H       0.83113   0.72730   0.53807
H          H       0.37569   0.82192   0.29231
H          H       0.37569   0.17808   0.29231
H          H       0.42444   0.82317   0.39255
H          H       0.42444   0.17683   0.39255
H          H       0.47375   0.77869   0.39297
H          H       0.47375   0.22131   0.39297
H          H       0.42516   0.77673   0.29293
H          H       0.42516   0.22327   0.29293
H          H       0.30593   0.85425   0.25887
H          H       0.30593   0.14575   0.25887
H          H       0.20648   0.90007   0.26243
H          H       0.20648   0.09993   0.26243
H          H       0.08761   0.89908   0.13013
H          H       0.08761   0.10092   0.13013
H          H       0.13881   0.86690   0.17709
H          H       0.13881   0.13310   0.17709
H          H       0.32941   0.33107   0.61484
H          H       0.32941   0.66893   0.61484
H          H       0.58484   0.37807   0.37433
H          H       0.58484   0.62193   0.37433
H          H       0.53800   0.30455   0.37200
H          H       0.53800   0.69545   0.37200
H          H       0.48790   0.33981   0.27247
H          H       0.48790   0.66019   0.27247
H          H       0.53466   0.41342   0.27488
H          H       0.53466   0.58658   0.27488
H          H       0.46049   0.27127   0.29703
H          H       0.46049   0.72873   0.29703
H          H       0.03481   0.14992   0.82072
H          H       0.03481   0.85008   0.82072
H          H       0.82532   0.14851   0.03671
H          H       0.82532   0.85149   0.03671
H          H       0.21634   0.15400   0.17698
H          H       0.21634   0.84600   0.17698
H          H       0.66736   0.33563   0.33185
H          H       0.66736   0.66437   0.33185
H          H       0.33357   0.66436   0.66904
H          H       0.33357   0.33564   0.66904
H          H       0.00455   0.83087   0.94943
H          H       0.00455   0.16913   0.94943
H          H       0.95170   0.83091   0.00226
H          H       0.95170   0.16909   0.00226
H          H       0.05746   0.83088   0.05261
H          H       0.05746   0.16912   0.05261
H          H       0.00437   0.83572   0.00180
H          H       0.00437   0.16428   0.00180
