data_crystal

_cell_length_a    30.84790
_cell_length_b    30.84790
_cell_length_c    13.96680
_cell_angle_alpha 90.00000
_cell_angle_beta  90.00000
_cell_angle_gamma 120.00000

_symmetry_space_group_name_Hall 'P 1'
_symmetry_space_group_name_H-M  'P 1'

loop_
_symmetry_equiv_pos_as_xyz
 'x,y,z'

loop_
_atom_site_label
_atom_site_type_symbol
_atom_site_fract_x
_atom_site_fract_y
_atom_site_fract_z
C          C       0.09669   0.85557   0.23831
C          C       0.14443   0.24112   0.23831
C          C       0.75888   0.90331   0.23831
C          C       0.07436   0.87846   0.19360
C          C       0.12154   0.19590   0.19360
C          C       0.80410   0.92564   0.19360
C          C       0.20823   0.75292   0.40625
C          C       0.24708   0.45531   0.40625
C          C       0.54469   0.79177   0.40625
C          C       0.02663   0.97599   0.07578
C          C       0.02401   0.05064   0.07578
C          C       0.94936   0.97337   0.07578
C          C       0.04975   0.95521   0.12326
C          C       0.04479   0.09454   0.12326
C          C       0.90546   0.95025   0.12326
C          C       0.07313   0.93410   0.07534
C          C       0.06590   0.13903   0.07534
C          C       0.86097   0.92687   0.07534
C          C       0.19110   0.78077   0.36302
C          C       0.21923   0.41033   0.36302
C          C       0.58967   0.80890   0.36302
C          C       0.14497   0.86806   0.21460
C          C       0.13194   0.27691   0.21460
C          C       0.72309   0.85503   0.21460
N          N       0.16557   0.84166   0.25715
N          N       0.15834   0.32391   0.25715
N          N       0.67609   0.83443   0.25715
C          C       0.51754   0.74287   0.43299
C          C       0.25713   0.77467   0.43299
C          C       0.22533   0.48246   0.43299
C          C       0.25939   0.84645   0.67841
C          C       0.15355   0.41294   0.67841
C          C       0.58706   0.74061   0.67841
C          C       0.27838   0.82147   0.63172
C          C       0.17853   0.45691   0.63172
C          C       0.54309   0.72162   0.63172
C          C       0.31024   0.69388   0.57696
C          C       0.30612   0.61636   0.57696
C          C       0.38364   0.68976   0.57696
C          C       0.29006   0.71697   0.62570
C          C       0.28303   0.57309   0.62570
C          C       0.42691   0.70994   0.62570
C          C       0.27287   0.74403   0.57939
C          C       0.25597   0.52884   0.57939
C          C       0.47116   0.72713   0.57939
C          C       0.21731   0.82107   0.73099
C          C       0.17893   0.39624   0.73099
C          C       0.60376   0.78269   0.73099
C          C       0.19872   0.84861   0.78035
C          C       0.15139   0.35011   0.78035
C          C       0.64989   0.80128   0.78035
C          C       0.69590   0.77786   0.11592
C          C       0.22214   0.91804   0.11592
C          C       0.08196   0.30410   0.11592
C          C       0.74968   0.93116   0.31297
C          C       0.06884   0.81852   0.31297
C          C       0.18148   0.25032   0.31297
C          C       0.75131   0.97728   0.27629
C          C       0.02272   0.77403   0.27629
C          C       0.22597   0.24869   0.27629
C          C       0.78578   0.94332   0.39129
C          C       0.05668   0.84246   0.39129
C          C       0.15754   0.21422   0.39129
C          C       0.71163   0.74101   0.14331
C          C       0.25899   0.97062   0.14331
C          C       0.02938   0.28837   0.14331
C          C       0.68645   0.77531   0.01352
C          C       0.22469   0.91114   0.01352
C          C       0.08886   0.31355   0.01352
C          C       0.81550   0.90921   0.92563
C          C       0.09079   0.90629   0.92563
C          C       0.09371   0.18450   0.92563
C          C       0.12428   0.93014   0.85609
C          C       0.06986   0.19414   0.85609
C          C       0.80586   0.87572   0.85609
C          C       0.14410   0.90636   0.80598
C          C       0.09364   0.23774   0.80598
C          C       0.76226   0.85590   0.80598
C          C       0.81459   0.90093   0.12705
C          C       0.09907   0.91366   0.12705
C          C       0.08634   0.18541   0.12705
C          C       0.14751   0.92751   0.10657
C          C       0.07249   0.22000   0.10657
C          C       0.78000   0.85249   0.10657
C          C       0.17072   0.90420   0.14709
C          C       0.09580   0.26652   0.14709
C          C       0.73348   0.82928   0.14709
C          C       0.09541   0.83270   0.89782
C          C       0.16730   0.26271   0.89782
C          C       0.73729   0.90459   0.89782
C          C       0.07548   0.85744   0.94415
C          C       0.14256   0.21804   0.94415
C          C       0.78196   0.92452   0.94415
C          C       0.21215   0.74473   0.68670
C          C       0.25527   0.46742   0.68670
C          C       0.53258   0.78785   0.68670
C          C       0.02648   0.97597   0.97990
C          C       0.02403   0.05051   0.97990
C          C       0.94949   0.97352   0.97990
C          C       0.04831   0.95425   0.93174
C          C       0.04575   0.09406   0.93174
C          C       0.90594   0.95169   0.93174
C          C       0.07119   0.93246   0.97872
C          C       0.06754   0.13873   0.97872
C          C       0.86127   0.92881   0.97872
C          C       0.19379   0.76993   0.73562
C          C       0.23007   0.42386   0.73562
C          C       0.57614   0.80621   0.73562
C          C       0.13098   0.85760   0.82986
C          C       0.14240   0.27338   0.82986
C          C       0.72662   0.86902   0.82986
N          N       0.15219   0.83216   0.78575
N          N       0.16784   0.32003   0.78575
N          N       0.67997   0.84781   0.78575
C          C       0.51635   0.74594   0.63307
C          C       0.25406   0.77041   0.63307
C          C       0.22959   0.48365   0.63307
C          C       0.27140   0.85251   0.37565
C          C       0.14749   0.41889   0.37565
C          C       0.58111   0.72860   0.37565
C          C       0.28873   0.82432   0.41632
C          C       0.17568   0.46441   0.41632
C          C       0.53559   0.71127   0.41632
C          C       0.31089   0.69476   0.48105
C          C       0.30524   0.61613   0.48105
C          C       0.38387   0.68911   0.48105
C          C       0.29303   0.72073   0.43416
C          C       0.27927   0.57230   0.43416
C          C       0.42770   0.70697   0.43416
C          C       0.27470   0.74625   0.48313
C          C       0.25375   0.52845   0.48313
C          C       0.47155   0.72530   0.48313
C          C       0.22263   0.83096   0.34785
C          C       0.16904   0.39167   0.34785
C          C       0.60833   0.77737   0.34785
C          C       0.20520   0.86150   0.30506
C          C       0.13850   0.34370   0.30506
C          C       0.65630   0.79480   0.30506
C          C       0.75600   0.82260   0.72608
C          C       0.17740   0.93340   0.72608
C          C       0.06660   0.24400   0.72608
C          C       0.70108   0.92121   0.92297
C          C       0.07879   0.77987   0.92297
C          C       0.22013   0.29892   0.92297
C          C       0.68364   0.90753   0.02115
C          C       0.09247   0.77611   0.02115
C          C       0.22389   0.31636   0.02115
C          C       0.72334   0.97622   0.90758
C          C       0.02378   0.74712   0.90758
C          C       0.25288   0.27666   0.90758
C          C       0.79701   0.84876   0.65627
C          C       0.15124   0.94825   0.65627
C          C       0.05175   0.20299   0.65627
C          C       0.75331   0.77519   0.75843
C          C       0.22481   0.97812   0.75843
C          C       0.02188   0.24669   0.75843
C          C       0.43089   0.49814   0.02403
C          C       0.50186   0.93275   0.02403
C          C       0.06725   0.56911   0.02403
C          C       0.40891   0.52253   0.98335
C          C       0.47747   0.88638   0.98335
C          C       0.11362   0.59109   0.98335
C          C       0.54813   0.41440   0.25133
C          C       0.58560   0.13373   0.25133
C          C       0.86627   0.45187   0.25133
C          C       0.35934   0.64194   0.95766
C          C       0.35806   0.71740   0.95766
C          C       0.28260   0.64066   0.95766
C          C       0.38033   0.61887   0.00460
C          C       0.38113   0.76146   0.00460
C          C       0.23854   0.61967   0.00460
C          C       0.40348   0.59761   0.95625
C          C       0.40239   0.80587   0.95625
C          C       0.19413   0.59652   0.95625
C          C       0.52983   0.43847   0.19920
C          C       0.56153   0.09136   0.19920
C          C       0.90864   0.47017   0.19920
C          C       0.46652   0.52224   0.09228
C          C       0.47776   0.94428   0.09228
C          C       0.05572   0.53348   0.09228
N          N       0.48922   0.49720   0.13285
N          N       0.50280   0.99202   0.13285
N          N       0.00798   0.51078   0.13285
C          C       0.84950   0.40836   0.30021
C          C       0.59164   0.44114   0.30021
C          C       0.55886   0.15050   0.30021
C          C       0.59790   0.49020   0.64071
C          C       0.50980   0.10770   0.64071
C          C       0.89230   0.40210   0.64071
C          C       0.61737   0.46882   0.58411
C          C       0.53118   0.14855   0.58411
C          C       0.85145   0.38263   0.58411
C          C       0.64662   0.36352   0.45089
C          C       0.63648   0.28310   0.45089
C          C       0.71690   0.35338   0.45089
C          C       0.62928   0.38958   0.49869
C          C       0.61042   0.23970   0.49869
C          C       0.76030   0.37072   0.49869
C          C       0.61099   0.41598   0.45177
C          C       0.58402   0.19501   0.45177
C          C       0.80499   0.38901   0.45177
C          C       0.55334   0.48705   0.61930
C          C       0.51295   0.06629   0.61930
C          C       0.93371   0.44666   0.61930
C          C       0.53195   0.50762   0.68096
C          C       0.49238   0.02433   0.68096
C          C       0.97567   0.46805   0.68096
C          C       0.08497   0.49082   0.20482
C          C       0.50918   0.59415   0.20482
C          C       0.40585   0.91503   0.20482
C          C       0.03076   0.58458   0.99468
C          C       0.41542   0.44618   0.99468
C          C       0.55382   0.96924   0.99468
C          C       0.02172   0.57928   0.89203
C          C       0.42072   0.44244   0.89203
C          C       0.55756   0.97828   0.89203
C          C       0.04805   0.63700   0.02496
C          C       0.36300   0.41105   0.02496
C          C       0.58895   0.95195   0.02496
C          C       0.12321   0.51915   0.27798
C          C       0.48085   0.60406   0.27798
C          C       0.39594   0.87679   0.27798
C          C       0.08532   0.44419   0.17723
C          C       0.55581   0.64113   0.17723
C          C       0.35887   0.91468   0.17723
C          C       0.14892   0.56349   0.80600
C          C       0.43651   0.58543   0.80600
C          C       0.41457   0.85108   0.80600
C          C       0.48329   0.59661   0.83425
C          C       0.40339   0.88668   0.83425
C          C       0.11332   0.51671   0.83425
C          C       0.51131   0.58121   0.78496
C          C       0.41879   0.93010   0.78496
C          C       0.06990   0.48869   0.78496
C          C       0.14781   0.57740   0.00734
C          C       0.42260   0.57041   0.00734
C          C       0.42959   0.85219   0.00734
C          C       0.45577   0.59309   0.07778
C          C       0.40691   0.86268   0.07778
C          C       0.13732   0.54423   0.07778
C          C       0.47718   0.56929   0.12265
C          C       0.43071   0.90789   0.12265
C          C       0.09211   0.52282   0.12265
C          C       0.44653   0.54786   0.66932
C          C       0.45214   0.89867   0.66932
C          C       0.10133   0.55347   0.66932
C          C       0.41863   0.56106   0.72376
C          C       0.43894   0.85757   0.72376
C          C       0.14243   0.58137   0.72376
C          C       0.54677   0.43900   0.48627
C          C       0.56100   0.10777   0.48627
C          C       0.89223   0.45323   0.48627
C          C       0.35980   0.64261   0.86197
C          C       0.35739   0.71719   0.86197
C          C       0.28281   0.64020   0.86197
C          C       0.38367   0.62311   0.81354
C          C       0.37689   0.76056   0.81354
C          C       0.23944   0.61633   0.81354
C          C       0.40715   0.60160   0.85980
C          C       0.39840   0.80555   0.85980
C          C       0.19445   0.59285   0.85980
C          C       0.52820   0.46193   0.54111
C          C       0.53807   0.06627   0.54111
C          C       0.93373   0.47180   0.54111
C          C       0.49183   0.55520   0.70224
C          C       0.44480   0.93663   0.70224
C          C       0.06337   0.50817   0.70224
N          N       0.51632   0.53562   0.64966
N          N       0.46438   0.98070   0.64966
N          N       0.01930   0.48368   0.64966
C          C       0.85064   0.40809   0.50643
C          C       0.59191   0.44255   0.50643
C          C       0.55745   0.14936   0.50643
C          C       0.59998   0.51622   0.23979
C          C       0.48378   0.08376   0.23979
C          C       0.91624   0.40002   0.23979
C          C       0.61761   0.49216   0.29401
C          C       0.50784   0.12545   0.29401
C          C       0.87455   0.38239   0.29401
C          C       0.64642   0.36332   0.35516
C          C       0.63668   0.28310   0.35516
C          C       0.71690   0.35358   0.35516
C          C       0.62836   0.38874   0.30754
C          C       0.61126   0.23962   0.30754
C          C       0.76038   0.37164   0.30754
C          C       0.61047   0.41515   0.35489
C          C       0.58485   0.19532   0.35489
C          C       0.80468   0.38953   0.35489
C          C       0.55566   0.48958   0.19312
C          C       0.51042   0.06608   0.19312
C          C       0.93392   0.44434   0.19312
C          C       0.53604   0.51558   0.14111
C          C       0.48442   0.02046   0.14111
C          C       0.97954   0.46396   0.14111
C          C       0.03276   0.43799   0.82092
C          C       0.56201   0.59477   0.82092
C          C       0.40523   0.96724   0.82092
C          C       0.09838   0.57285   0.57608
C          C       0.42715   0.52553   0.57608
C          C       0.47447   0.90162   0.57608
C          C       0.09100   0.61701   0.58427
C          C       0.38299   0.47399   0.58427
C          C       0.52601   0.90900   0.58427
C          C       0.14356   0.58529   0.51829
C          C       0.41471   0.55827   0.51829
C          C       0.44173   0.85644   0.51829
C          C       0.05505   0.40499   0.83082
C          C       0.59501   0.65006   0.83082
C          C       0.34994   0.94495   0.83082
C          C       0.01109   0.44134   0.91169
C          C       0.55866   0.56975   0.91169
C          C       0.43025   0.98891   0.91169
H          H       0.03429   0.86776   0.21262
H          H       0.13224   0.16653   0.21262
H          H       0.83347   0.96571   0.21262
H          H       0.18171   0.71140   0.42013
H          H       0.28860   0.47031   0.42013
H          H       0.52969   0.81829   0.42013
H          H       0.05000   0.95507   0.20488
H          H       0.04493   0.09493   0.20488
H          H       0.90507   0.95000   0.20488
H          H       0.15037   0.76251   0.33912
H          H       0.23749   0.38786   0.33912
H          H       0.61214   0.84963   0.33912
H          H       0.27886   0.88899   0.67349
H          H       0.11101   0.38987   0.67349
H          H       0.61013   0.72114   0.67349
H          H       0.31507   0.84298   0.59062
H          H       0.15702   0.47209   0.59062
H          H       0.52791   0.68493   0.59062
H          H       0.28720   0.71397   0.70707
H          H       0.28603   0.57323   0.70707
H          H       0.42677   0.71280   0.70707
H          H       0.22584   0.88586   0.81548
H          H       0.11414   0.33998   0.81548
H          H       0.66002   0.77416   0.81548
H          H       0.65926   0.76694   0.15444
H          H       0.23306   0.89232   0.15444
H          H       0.10768   0.34074   0.15444
H          H       0.71063   0.90566   0.34312
H          H       0.09434   0.80497   0.34312
H          H       0.19503   0.28937   0.34312
H          H       0.76960   0.98682   0.20255
H          H       0.01318   0.78278   0.20255
H          H       0.21722   0.23040   0.20255
H          H       0.77399   0.00964   0.32753
H          H       0.99036   0.76435   0.32753
H          H       0.23565   0.22601   0.32753
H          H       0.71159   0.97069   0.27071
H          H       0.02931   0.74090   0.27071
H          H       0.25910   0.28841   0.27071
H          H       0.82407   0.97483   0.36780
H          H       0.02517   0.84924   0.36780
H          H       0.15076   0.17593   0.36780
H          H       0.78852   0.90880   0.41005
H          H       0.09120   0.87972   0.41005
H          H       0.12028   0.21148   0.41005
H          H       0.77275   0.95576   0.45677
H          H       0.04424   0.81699   0.45677
H          H       0.18301   0.22725   0.45677
H          H       0.71326   0.72056   0.07663
H          H       0.27944   0.99270   0.07663
H          H       0.00730   0.28674   0.07663
H          H       0.68346   0.71279   0.19608
H          H       0.28721   0.97067   0.19608
H          H       0.02933   0.31654   0.19608
H          H       0.75019   0.76152   0.17815
H          H       0.23848   0.98867   0.17815
H          H       0.01133   0.24981   0.17815
H          H       0.69701   0.74838   0.97896
H          H       0.25162   0.94863   0.97896
H          H       0.05137   0.30299   0.97896
H          H       0.70987   0.81412   0.98076
H          H       0.18588   0.89575   0.98076
H          H       0.10425   0.29013   0.98076
H          H       0.64506   0.76143   0.00054
H          H       0.23857   0.88363   0.00054
H          H       0.11637   0.35494   0.00054
H          H       0.13617   0.97072   0.83900
H          H       0.02928   0.16545   0.83900
H          H       0.83455   0.86383   0.83900
H          H       0.16870   0.95957   0.05391
H          H       0.04043   0.20913   0.05391
H          H       0.79087   0.83130   0.05391
H          H       0.04505   0.83722   0.00030
H          H       0.16278   0.20783   0.00030
H          H       0.79217   0.95495   0.00030
H          H       0.19237   0.70215   0.69077
H          H       0.29785   0.49022   0.69077
H          H       0.50978   0.80763   0.69077
H          H       0.04788   0.95385   0.85012
H          H       0.04615   0.09403   0.85012
H          H       0.90597   0.95212   0.85012
H          H       0.15856   0.74836   0.78084
H          H       0.25164   0.41020   0.78084
H          H       0.58980   0.84144   0.78084
H          H       0.29761   0.89435   0.36461
H          H       0.10565   0.40326   0.36461
H          H       0.59674   0.70239   0.36461
H          H       0.32991   0.84208   0.43679
H          H       0.15792   0.48783   0.43679
H          H       0.51217   0.67009   0.43679
H          H       0.29316   0.72150   0.35255
H          H       0.27850   0.57166   0.35255
H          H       0.42834   0.70684   0.35255
H          H       0.22731   0.90387   0.31447
H          H       0.09613   0.32344   0.31447
H          H       0.67656   0.77269   0.31447
H          H       0.71930   0.81243   0.68855
H          H       0.18757   0.90687   0.68855
H          H       0.09313   0.28070   0.68855
H          H       0.66733   0.90106   0.87354
H          H       0.09894   0.76627   0.87354
H          H       0.23373   0.33267   0.87354
H          H       0.67366   0.86715   0.03484
H          H       0.13285   0.80651   0.03484
H          H       0.19349   0.32634   0.03484
H          H       0.64913   0.91136   0.03281
H          H       0.08864   0.73777   0.03281
H          H       0.26223   0.35087   0.03281
H          H       0.71448   0.93337   0.07266
H          H       0.06663   0.78111   0.07266
H          H       0.21889   0.28552   0.07266
H          H       0.72982   0.98485   0.82779
H          H       0.01515   0.74497   0.82779
H          H       0.25503   0.27018   0.82779
H          H       0.76055   0.99711   0.94721
H          H       0.00289   0.76344   0.94721
H          H       0.23656   0.23945   0.94721
H          H       0.69664   0.98867   0.93599
H          H       0.01133   0.70797   0.93599
H          H       0.29203   0.30336   0.93599
H          H       0.78129   0.85462   0.58670
H          H       0.14538   0.92667   0.58670
H          H       0.07333   0.21871   0.58670
H          H       0.81536   0.82524   0.64158
H          H       0.17476   0.99012   0.64158
H          H       0.00988   0.18464   0.64158
H          H       0.82603   0.88661   0.68665
H          H       0.11339   0.93942   0.68665
H          H       0.06058   0.17397   0.68665
H          H       0.77586   0.78243   0.82716
H          H       0.21757   0.99343   0.82716
H          H       0.00657   0.22414   0.82716
H          H       0.76941   0.76125   0.70050
H          H       0.23875   0.00816   0.70050
H          H       0.99184   0.23059   0.70050
H          H       0.71261   0.74568   0.77234
H          H       0.25432   0.96693   0.77234
H          H       0.03307   0.28739   0.77234
H          H       0.37816   0.50277   0.92759
H          H       0.49723   0.87539   0.92759
H          H       0.12461   0.62184   0.92759
H          H       0.52705   0.37175   0.25420
H          H       0.62825   0.15530   0.25420
H          H       0.84470   0.47295   0.25420
H          H       0.37895   0.61685   0.08613
H          H       0.38315   0.76210   0.08613
H          H       0.23790   0.62105   0.08613
H          H       0.49266   0.41622   0.15993
H          H       0.58378   0.07644   0.15993
H          H       0.92356   0.50734   0.15993
H          H       0.61879   0.51137   0.70782
H          H       0.48863   0.10742   0.70782
H          H       0.89258   0.38121   0.70782
H          H       0.65533   0.47299   0.60202
H          H       0.52701   0.18234   0.60202
H          H       0.81766   0.34467   0.60202
H          H       0.62960   0.39002   0.58031
H          H       0.60998   0.23958   0.58031
H          H       0.76042   0.37040   0.58031
H          H       0.52856   0.49897   0.76086
H          H       0.50103   0.02959   0.76086
H          H       0.97041   0.47144   0.76086
H          H       0.04679   0.47931   0.23719
H          H       0.52069   0.56748   0.23719
H          H       0.43252   0.95321   0.23719
H          H       0.99379   0.55911   0.03243
H          H       0.44089   0.43468   0.03243
H          H       0.56532   0.00621   0.03243
H          H       0.03350   0.55238   0.86186
H          H       0.44762   0.48112   0.86186
H          H       0.51888   0.96650   0.86186
H          H       0.04439   0.61738   0.85614
H          H       0.38262   0.42701   0.85614
H          H       0.57299   0.95561   0.85614
H          H       0.98019   0.56393   0.87762
H          H       0.43607   0.41626   0.87762
H          H       0.58374   0.01981   0.87762
H          H       0.06603   0.66324   0.96153
H          H       0.33676   0.40279   0.96153
H          H       0.59721   0.93397   0.96153
H          H       0.07665   0.64788   0.08507
H          H       0.35212   0.42877   0.08507
H          H       0.57123   0.92335   0.08507
H          H       0.01471   0.64002   0.05150
H          H       0.35998   0.37469   0.05150
H          H       0.62531   0.98529   0.05150
H          H       0.15572   0.55367   0.24380
H          H       0.44633   0.60205   0.24380
H          H       0.39795   0.84428   0.24380
H          H       0.13741   0.49447   0.30955
H          H       0.50553   0.64294   0.30955
H          H       0.35706   0.86259   0.30955
H          H       0.10610   0.53125   0.33723
H          H       0.46875   0.57485   0.33723
H          H       0.42515   0.89390   0.33723
H          H       0.06542   0.43003   0.10563
H          H       0.56997   0.63539   0.10563
H          H       0.36461   0.93458   0.10563
H          H       0.06517   0.41434   0.23441
H          H       0.58566   0.65083   0.23441
H          H       0.34917   0.93483   0.23441
H          H       0.12564   0.45263   0.17061
H          H       0.54737   0.67301   0.17061
H          H       0.32699   0.87436   0.17061
H          H       0.49879   0.61985   0.90216
H          H       0.38015   0.87894   0.90216
H          H       0.12106   0.50121   0.90216
H          H       0.46608   0.63264   0.10018
H          H       0.36736   0.83344   0.10018
H          H       0.16656   0.53392   0.10018
H          H       0.37953   0.55132   0.69929
H          H       0.44868   0.82821   0.69929
H          H       0.17179   0.62047   0.69929
H          H       0.52480   0.41604   0.42149
H          H       0.58396   0.10876   0.42149
H          H       0.89124   0.47520   0.42149
H          H       0.38463   0.62430   0.73195
H          H       0.37570   0.76033   0.73195
H          H       0.23967   0.61537   0.73195
H          H       0.49144   0.46005   0.52138
H          H       0.53995   0.03139   0.52138
H          H       0.96861   0.50856   0.52138
H          H       0.62227   0.55874   0.23330
H          H       0.44126   0.06353   0.23330
H          H       0.93647   0.37773   0.23330
H          H       0.65429   0.51444   0.33481
H          H       0.48556   0.13985   0.33481
H          H       0.86015   0.34571   0.33481
H          H       0.62781   0.38848   0.22592
H          H       0.61152   0.23933   0.22592
H          H       0.76067   0.37219   0.22592
H          H       0.56276   0.55319   0.10675
H          H       0.44681   0.00957   0.10675
H          H       0.99043   0.43724   0.10675
H          H       0.00117   0.42008   0.76624
H          H       0.57992   0.58109   0.76624
H          H       0.41891   0.99883   0.76624
H          H       0.06455   0.54200   0.53701
H          H       0.45800   0.52255   0.53701
H          H       0.47745   0.93545   0.53701
H          H       0.06543   0.61151   0.64760
H          H       0.38849   0.45392   0.64760
H          H       0.54608   0.93457   0.64760
H          H       0.07319   0.62091   0.51571
H          H       0.37909   0.45228   0.51571
H          H       0.54772   0.92681   0.51571
H          H       0.12875   0.65231   0.59575
H          H       0.34769   0.47644   0.59575
H          H       0.52356   0.87125   0.59575
H          H       0.13723   0.59272   0.44104
H          H       0.40728   0.54451   0.44104
H          H       0.45549   0.86277   0.44104
H          H       0.15093   0.55259   0.52048
H          H       0.44741   0.59834   0.52048
H          H       0.40166   0.84907   0.52048
H          H       0.17719   0.62011   0.54900
H          H       0.37989   0.55708   0.54900
H          H       0.44292   0.82281   0.54900
H          H       0.05819   0.39086   0.75717
H          H       0.60914   0.66733   0.75717
H          H       0.33267   0.94181   0.75717
H          H       0.03012   0.37178   0.87866
H          H       0.62822   0.65834   0.87866
H          H       0.34166   0.96988   0.87866
H          H       0.09387   0.42713   0.86419
H          H       0.57287   0.66674   0.86419
H          H       0.33326   0.90613   0.86419
H          H       0.99338   0.40358   0.94961
H          H       0.59642   0.58980   0.94961
H          H       0.41020   0.00662   0.94961
H          H       0.98126   0.45205   0.89745
H          H       0.54795   0.52921   0.89745
H          H       0.47079   0.01874   0.89745
H          H       0.04172   0.47101   0.95885
H          H       0.52899   0.57071   0.95885
H          H       0.42929   0.95828   0.95885
C          C       0.33333   0.66667   0.43753
C          C       0.33333   0.66667   0.61957
C          C       0.33333   0.66667   0.81931
C          C       0.33333   0.66667   0.00107
C          C       0.00000   0.00000   0.93680
C          C       0.00000   0.00000   0.11910
C          C       0.66667   0.33333   0.31187
C          C       0.66667   0.33333   0.49410
