data_crystal

_cell_length_a    44.57520
_cell_length_b    44.57520
_cell_length_c    7.68340
_cell_angle_alpha 90.00000
_cell_angle_beta  90.00000
_cell_angle_gamma 120.00000

_symmetry_space_group_name_Hall 'P 1'
_symmetry_space_group_name_H-M  'P 1'

loop_
_symmetry_equiv_pos_as_xyz
 'x,y,z'

loop_
_atom_site_label
_atom_site_type_symbol
_atom_site_fract_x
_atom_site_fract_y
_atom_site_fract_z
C          C       0.29632   0.64916   0.45696
C          C       0.35084   0.64716   0.45696
C          C       0.35284   0.70368   0.45696
C          C       0.31332   0.62890   0.42518
C          C       0.37110   0.68442   0.42518
C          C       0.31558   0.68668   0.42518
C          C       0.22060   0.45981   0.12088
C          C       0.54019   0.76079   0.12088
C          C       0.23921   0.77940   0.12088
C          C       0.20668   0.42451   0.09222
C          C       0.57549   0.78217   0.09222
C          C       0.21783   0.79332   0.09222
C          C       0.22610   0.41217   0.00560
C          C       0.58783   0.81393   0.00560
C          C       0.18607   0.77390   0.00560
C          C       0.25932   0.43568   0.44507
C          C       0.56432   0.82364   0.44507
C          C       0.17636   0.74068   0.44507
C          C       0.27332   0.47090   0.47284
C          C       0.52910   0.80242   0.47284
C          C       0.19758   0.72668   0.47284
C          C       0.25396   0.48330   0.05985
C          C       0.51670   0.77066   0.05985
C          C       0.22934   0.74604   0.05985
C          C       0.21027   0.37479   0.47079
C          C       0.62521   0.83548   0.47079
C          C       0.16452   0.78973   0.47079
C          C       0.17653   0.35763   0.40390
C          C       0.64237   0.81890   0.40390
C          C       0.18110   0.82347   0.40390
C          C       0.15806   0.32202   0.39275
C          C       0.67798   0.83604   0.39275
C          C       0.16396   0.84194   0.39275
C          C       0.17176   0.30199   0.45806
C          C       0.69801   0.86977   0.45806
C          C       0.13023   0.82824   0.45806
C          C       0.20672   0.31929   0.01325
C          C       0.68071   0.88743   0.01325
C          C       0.11257   0.79328   0.01325
C          C       0.22658   0.35561   0.01577
C          C       0.64439   0.87097   0.01577
C          C       0.12903   0.77342   0.01577
C          C       0.14861   0.26362   0.47525
C          C       0.73638   0.88499   0.47525
C          C       0.11501   0.85139   0.47525
C          C       0.11255   0.24956   0.49297
C          C       0.75044   0.86299   0.49297
C          C       0.13701   0.88745   0.49297
C          C       0.09031   0.21400   0.00313
C          C       0.78600   0.87631   0.00313
C          C       0.12369   0.90969   0.00313
C          C       0.10321   0.19102   0.01051
C          C       0.80898   0.91219   0.01051
C          C       0.08781   0.89679   0.01051
C          C       0.13938   0.20489   0.49386
C          C       0.79511   0.93449   0.49386
C          C       0.06551   0.86062   0.49386
C          C       0.16170   0.24072   0.47454
C          C       0.75928   0.92098   0.47454
C          C       0.07902   0.83830   0.47454
C          C       0.26581   0.52043   0.06050
C          C       0.47957   0.74538   0.06050
C          C       0.25462   0.73419   0.06050
O          O       0.24433   0.52951   0.07595
O          O       0.47049   0.71482   0.07595
O          O       0.28518   0.75567   0.07595
N          N       0.30015   0.54442   0.03271
N          N       0.45558   0.75573   0.03271
N          N       0.24427   0.69985   0.03271
N          N       0.31150   0.57429   0.42891
N          N       0.42571   0.73721   0.42891
N          N       0.26279   0.68850   0.42891
C          C       0.29462   0.59442   0.41902
C          C       0.40558   0.70020   0.41902
C          C       0.29980   0.70538   0.41902
N          N       0.08787   0.12868   0.04700
N          N       0.87132   0.95919   0.04700
N          N       0.04081   0.91213   0.04700
O          O       0.04744   0.14470   0.05866
O          O       0.85530   0.90274   0.05866
O          O       0.09726   0.95256   0.05866
C          C       0.07783   0.15325   0.03510
C          C       0.84675   0.92458   0.03510
C          C       0.07542   0.92217   0.03510
C          C       0.03185   0.07304   0.47737
C          C       0.92696   0.95881   0.47737
C          C       0.04119   0.96815   0.47737
N          N       0.06899   0.09449   0.48251
N          N       0.90551   0.97450   0.48251
N          N       0.02550   0.93101   0.48251
C          C       0.03720   0.02051   0.01741
C          C       0.97949   0.01669   0.01741
C          C       0.98331   0.96280   0.01741
C          C       0.01696   0.03820   0.48818
C          C       0.96180   0.97876   0.48818
C          C       0.02124   0.98304   0.48818
C          C       0.26444   0.37252   0.06648
C          C       0.62748   0.89192   0.06648
C          C       0.10808   0.73556   0.06648
O          O       0.27148   0.63726   0.05630
O          O       0.36274   0.63422   0.05630
O          O       0.36578   0.72852   0.05630
O          O       0.06325   0.03478   0.10784
O          O       0.96522   0.02847   0.10784
O          O       0.97153   0.93675   0.10784
H          H       0.20524   0.46920   0.18713
H          H       0.53080   0.73604   0.18713
H          H       0.26396   0.79476   0.18713
H          H       0.18028   0.40642   0.13195
H          H       0.59358   0.77386   0.13195
H          H       0.22614   0.81972   0.13195
H          H       0.27401   0.42679   0.37161
H          H       0.57321   0.84722   0.37161
H          H       0.15278   0.72599   0.37161
H          H       0.29766   0.48817   0.40940
H          H       0.51183   0.80949   0.40940
H          H       0.19051   0.70234   0.40940
H          H       0.16439   0.37233   0.36328
H          H       0.62767   0.79206   0.36328
H          H       0.20794   0.83561   0.36328
H          H       0.13233   0.30992   0.33744
H          H       0.69008   0.82241   0.33744
H          H       0.17759   0.86767   0.33744
H          H       0.21839   0.30476   0.06050
H          H       0.69524   0.91363   0.06050
H          H       0.08637   0.78161   0.06050
H          H       0.10123   0.26605   0.00379
H          H       0.73395   0.83518   0.00379
H          H       0.16482   0.89877   0.00379
H          H       0.06256   0.20431   0.00715
H          H       0.79569   0.85825   0.00715
H          H       0.14175   0.93744   0.00715
H          H       0.15067   0.18837   0.48968
H          H       0.81163   0.96230   0.48968
H          H       0.03770   0.84933   0.48968
H          H       0.18925   0.25063   0.45999
H          H       0.74937   0.93862   0.45999
H          H       0.06138   0.81075   0.45999
H          H       0.31880   0.53738   0.05907
H          H       0.46262   0.78142   0.05907
H          H       0.21858   0.68120   0.05907
H          H       0.33434   0.58350   0.35440
H          H       0.41650   0.75084   0.35440
H          H       0.24916   0.66566   0.35440
H          H       0.26676   0.58233   0.41899
H          H       0.41767   0.68443   0.41899
H          H       0.31557   0.73324   0.41899
H          H       0.11369   0.13734   0.07644
H          H       0.86266   0.97635   0.07644
H          H       0.02365   0.88631   0.07644
H          H       0.01522   0.08455   0.46925
H          H       0.91545   0.93067   0.46925
H          H       0.06933   0.98478   0.46925
H          H       0.08315   0.08436   0.42107
H          H       0.91564   0.99879   0.42107
H          H       0.00121   0.91685   0.42107
H          H       0.27998   0.37525   0.44847
H          H       0.62475   0.90473   0.44847
H          H       0.09527   0.72002   0.44847
H          H       0.26856   0.35673   0.16364
H          H       0.64327   0.91183   0.16364
H          H       0.08817   0.73144   0.16364
H          H       0.27383   0.39772   0.12950
H          H       0.60228   0.87611   0.12950
H          H       0.12389   0.72617   0.12950
C          C       0.29632   0.64916   0.95696
C          C       0.35084   0.64716   0.95696
C          C       0.35284   0.70368   0.95696
C          C       0.31332   0.62890   0.92518
C          C       0.37110   0.68442   0.92518
C          C       0.31558   0.68668   0.92518
C          C       0.22060   0.45981   0.62088
C          C       0.54019   0.76079   0.62088
C          C       0.23921   0.77940   0.62088
C          C       0.20668   0.42451   0.59222
C          C       0.57549   0.78217   0.59222
C          C       0.21783   0.79332   0.59222
C          C       0.22610   0.41217   0.50560
C          C       0.58783   0.81393   0.50560
C          C       0.18607   0.77390   0.50560
C          C       0.25932   0.43568   0.94507
C          C       0.56432   0.82364   0.94507
C          C       0.17636   0.74068   0.94507
C          C       0.27332   0.47090   0.97284
C          C       0.52910   0.80242   0.97284
C          C       0.19758   0.72668   0.97284
C          C       0.25396   0.48330   0.55985
C          C       0.51670   0.77066   0.55985
C          C       0.22934   0.74604   0.55985
C          C       0.21027   0.37479   0.97079
C          C       0.62521   0.83548   0.97079
C          C       0.16452   0.78973   0.97079
C          C       0.17653   0.35763   0.90390
C          C       0.64237   0.81890   0.90390
C          C       0.18110   0.82347   0.90390
C          C       0.15806   0.32202   0.89275
C          C       0.67798   0.83604   0.89275
C          C       0.16396   0.84194   0.89275
C          C       0.17176   0.30199   0.95806
C          C       0.69801   0.86977   0.95806
C          C       0.13023   0.82824   0.95806
C          C       0.20672   0.31929   0.51325
C          C       0.68071   0.88743   0.51325
C          C       0.11257   0.79328   0.51325
C          C       0.22658   0.35561   0.51577
C          C       0.64439   0.87097   0.51577
C          C       0.12903   0.77342   0.51577
C          C       0.14861   0.26362   0.97525
C          C       0.73638   0.88499   0.97525
C          C       0.11501   0.85139   0.97525
C          C       0.11255   0.24956   0.99297
C          C       0.75044   0.86299   0.99297
C          C       0.13701   0.88745   0.99297
C          C       0.09031   0.21400   0.50313
C          C       0.78600   0.87631   0.50313
C          C       0.12369   0.90969   0.50313
C          C       0.10321   0.19102   0.51051
C          C       0.80898   0.91219   0.51051
C          C       0.08781   0.89679   0.51051
C          C       0.13938   0.20489   0.99386
C          C       0.79511   0.93449   0.99386
C          C       0.06551   0.86062   0.99386
C          C       0.16170   0.24072   0.97454
C          C       0.75928   0.92098   0.97454
C          C       0.07902   0.83830   0.97454
C          C       0.26581   0.52043   0.56050
C          C       0.47957   0.74538   0.56050
C          C       0.25462   0.73419   0.56050
O          O       0.24433   0.52951   0.57596
O          O       0.47049   0.71482   0.57596
O          O       0.28518   0.75567   0.57596
N          N       0.30015   0.54442   0.53271
N          N       0.45558   0.75573   0.53271
N          N       0.24427   0.69985   0.53271
N          N       0.31150   0.57429   0.92891
N          N       0.42571   0.73721   0.92891
N          N       0.26279   0.68850   0.92891
C          C       0.29462   0.59442   0.91903
C          C       0.40558   0.70020   0.91903
C          C       0.29980   0.70538   0.91903
N          N       0.08787   0.12868   0.54700
N          N       0.87132   0.95919   0.54700
N          N       0.04081   0.91213   0.54700
O          O       0.04744   0.14470   0.55866
O          O       0.85530   0.90274   0.55866
O          O       0.09726   0.95256   0.55866
C          C       0.07783   0.15325   0.53509
C          C       0.84675   0.92458   0.53509
C          C       0.07542   0.92217   0.53509
C          C       0.03185   0.07304   0.97737
C          C       0.92696   0.95881   0.97737
C          C       0.04119   0.96815   0.97737
N          N       0.06899   0.09449   0.98251
N          N       0.90551   0.97450   0.98251
N          N       0.02550   0.93101   0.98251
C          C       0.03720   0.02051   0.51742
C          C       0.97949   0.01669   0.51742
C          C       0.98331   0.96280   0.51742
C          C       0.01696   0.03820   0.98818
C          C       0.96180   0.97876   0.98818
C          C       0.02124   0.98304   0.98818
C          C       0.26444   0.37252   0.56648
C          C       0.62748   0.89192   0.56648
C          C       0.10808   0.73556   0.56648
O          O       0.27148   0.63726   0.55630
O          O       0.36274   0.63422   0.55630
O          O       0.36578   0.72852   0.55630
O          O       0.06325   0.03478   0.60784
O          O       0.96522   0.02847   0.60784
O          O       0.97153   0.93675   0.60784
H          H       0.20524   0.46920   0.68713
H          H       0.53080   0.73604   0.68713
H          H       0.26396   0.79476   0.68713
H          H       0.18028   0.40642   0.63195
H          H       0.59358   0.77386   0.63195
H          H       0.22614   0.81972   0.63195
H          H       0.27401   0.42679   0.87161
H          H       0.57321   0.84722   0.87161
H          H       0.15278   0.72599   0.87161
H          H       0.29766   0.48817   0.90940
H          H       0.51183   0.80949   0.90940
H          H       0.19051   0.70234   0.90940
H          H       0.16439   0.37233   0.86328
H          H       0.62767   0.79206   0.86328
H          H       0.20794   0.83561   0.86328
H          H       0.13233   0.30992   0.83744
H          H       0.69008   0.82241   0.83744
H          H       0.17759   0.86767   0.83744
H          H       0.21839   0.30476   0.56050
H          H       0.69524   0.91363   0.56050
H          H       0.08637   0.78161   0.56050
H          H       0.10123   0.26605   0.50379
H          H       0.73395   0.83518   0.50379
H          H       0.16482   0.89877   0.50379
H          H       0.06256   0.20431   0.50715
H          H       0.79569   0.85825   0.50715
H          H       0.14175   0.93744   0.50715
H          H       0.15067   0.18837   0.98968
H          H       0.81163   0.96230   0.98968
H          H       0.03770   0.84933   0.98968
H          H       0.18925   0.25063   0.95999
H          H       0.74937   0.93862   0.95999
H          H       0.06138   0.81075   0.95999
H          H       0.31880   0.53738   0.55907
H          H       0.46262   0.78142   0.55907
H          H       0.21858   0.68120   0.55907
H          H       0.33434   0.58350   0.85441
H          H       0.41650   0.75084   0.85441
H          H       0.24916   0.66566   0.85441
H          H       0.26676   0.58233   0.91899
H          H       0.41767   0.68443   0.91899
H          H       0.31557   0.73324   0.91899
H          H       0.11369   0.13734   0.57644
H          H       0.86266   0.97635   0.57644
H          H       0.02365   0.88631   0.57644
H          H       0.01522   0.08455   0.96925
H          H       0.91545   0.93067   0.96925
H          H       0.06933   0.98478   0.96925
H          H       0.08315   0.08436   0.92107
H          H       0.91564   0.99879   0.92107
H          H       0.00121   0.91685   0.92107
H          H       0.27998   0.37525   0.94847
H          H       0.62475   0.90473   0.94847
H          H       0.09527   0.72002   0.94847
H          H       0.26856   0.35673   0.66364
H          H       0.64327   0.91183   0.66364
H          H       0.08817   0.73144   0.66364
H          H       0.27383   0.39772   0.62950
H          H       0.60228   0.87611   0.62950
H          H       0.12389   0.72617   0.62950
