data_crystal

_cell_length_a    29.83000
_cell_length_b    29.83000
_cell_length_c    7.84000
_cell_angle_alpha 90.00000
_cell_angle_beta  90.00000
_cell_angle_gamma 60.00000

_space_group_name_Hall 'P 1'
_space_group_name_H-M_alt  'P 1'

loop_
_symmetry_equiv_pos_as_xyz
 'x,y,z'

loop_
_atom_site_label
_atom_site_type_symbol
_atom_site_fract_x
_atom_site_fract_y
_atom_site_fract_z
H          H       0.04341   0.88939   0.00000
C          C       0.73095   0.09596   0.00000
H          H       0.47411   0.25747   0.00000
C          C       0.87035   0.90090   0.00000
H          H       0.40799   0.09052   0.00000
C          C       0.89823   0.92887   0.00000
H          H       0.64150   0.02410   0.00000
C          C       0.89823   0.84540   0.00000
H          H       0.70884   0.99046   0.00000
C          C       0.95400   0.81753   0.00000
H          H       0.80869   0.09025   0.00000
C          C       0.98188   0.84516   0.00000
H          H       0.70887   0.14009   0.00000
C          C       0.95400   0.90100   0.00000
H          H       0.87626   0.82324   0.00000
C          C       0.45214   0.98456   0.00000
H          H       0.97607   0.77340   0.00000
C          C       0.36849   0.31902   0.00000
H          H       0.97611   0.92303   0.00000
C          C       0.39637   0.34699   0.00000
H          H       0.44052   0.32497   0.00000
C          C       0.36849   0.40283   0.00000
H          H       0.24071   0.42476   0.00000
C          C       0.31273   0.43070   0.00000
H          H       0.29062   0.32487   0.00000
C          C       0.28485   0.40273   0.00000
H          H       0.44052   0.49225   0.00000
C          C       0.31273   0.34689   0.00000
H          H       0.39047   0.59194   0.00000
C          C       0.36849   0.48630   0.00000
H          H       0.24071   0.59217   0.00000
C          C       0.31273   0.51417   0.00000
H          H       0.37430   0.05656   0.00000
C          C       0.39637   0.51427   0.00000
H          H       0.47421   0.85696   0.00000
C          C       0.36849   0.56978   0.00000
H          H       0.52416   0.90656   0.00000
C          C       0.31273   0.59765   0.00000
H          H       0.20702   0.05670   0.00000
C          C       0.28485   0.57001   0.00000
H          H       0.15706   0.00662   0.00000
C          C       0.39637   0.01243   0.00000
H          H       0.30692   0.85676   0.00000
C          C       0.36849   0.98446   0.00000
H          H       0.46685   0.40456   0.37023
C          C       0.39637   0.92896   0.00000
H          H       0.46685   0.36044   0.03477
C          C       0.45214   0.90108   0.00000
H          H       0.46685   0.42072   0.09500
C          C       0.48002   0.92872   0.00000
H          H       0.90772   0.01757   0.36588
C          C       0.28485   0.98470   0.00000
H          H       0.93569   0.98952   0.07383
C          C       0.31273   0.92886   0.00000
H          H       0.87346   0.05191   0.06029
C          C       0.22909   0.01257   0.00000
H          H       0.40153   0.83044   0.36589
C          C       0.20121   0.98460   0.00000
H          H       0.37364   0.83047   0.07411
C          C       0.22909   0.92876   0.00000
H          H       0.43599   0.83040   0.06000
C          C       0.28485   0.90089   0.00000
H          H       0.24526   0.67500   0.44634
C          C       0.45214   0.40259   0.00000
H          H       0.30298   0.67494   0.05366
C          C       0.89823   0.01235   0.00000
H          H       0.27323   0.82318   0.00000
C          C       0.39637   0.84515   0.00000
H          H       0.20698   0.65598   0.00000
C          C       0.06552   0.84526   0.00000
H          H       0.30634   0.66218   0.08496
C          C       0.22909   0.84529   0.00000
H          H       0.49835   0.25015   0.07411
C          C       0.20121   0.81732   0.00000
H          H       0.52625   0.25012   0.36589
C          C       0.14545   0.84519   0.00000
H          H       0.56070   0.25008   0.06000
C          C       0.11756   0.81756   0.00000
H          H       0.63414   0.98672   0.37023
C          C       0.14545   0.76172   0.00000
H          H       0.63414   0.94260   0.03477
C          C       0.20121   0.73384   0.00000
H          H       0.63414   0.00288   0.09500
C          C       0.22909   0.76181   0.00000
H          H       0.32222   0.76680   0.36588
C          C       0.22909   0.67801   0.00000
H          H       0.35019   0.73875   0.07383
C          C       0.53578   0.23541   0.00000
H          H       0.28796   0.80115   0.06029
C          C       0.61942   0.98475   0.00000
H          H       0.15060   0.66320   0.36589
C          C       0.31273   0.76158   0.00000
H          H       0.12271   0.66323   0.07411
C          C       0.14545   0.67791   0.00000
H          H       0.18506   0.66316   0.06000
C          C       0.06180   0.92890   0.00000
H          H       0.04709   0.90145   0.03477
C          C       0.36849   0.15174   0.00000
H          H       0.04709   0.94558   0.37023
N          N       0.64730   0.09620   0.00000
H          H       0.04709   0.96173   0.09500
N          N       0.87035   0.98471   0.00000
H          H       0.39123   0.11434   0.07411
N          N       0.48002   0.01253   0.00000
H          H       0.36334   0.14219   0.36589
N          N       0.39637   0.26318   0.00000
H          H       0.32888   0.17659   0.06000
N          N       0.39637   0.43046   0.00000
C          C       0.45214   0.15184   0.00000
N          N       0.36849   0.90099   0.00000
C          C       0.48002   0.09600   0.00000
N          N       0.28485   0.65349   0.00000
C          C       0.53578   0.06813   0.00000
N          N       0.03764   0.81729   0.00000
C          C       0.56366   0.09610   0.00000
N          N       0.20121   0.90113   0.00000
C          C       0.53578   0.15194   0.00000
N          N       0.28485   0.65013   0.00000
C          C       0.48002   0.17981   0.00000
O          O       0.56366   0.17957   0.00000
C          C       0.45214   0.23531   0.00000
O          O       0.39637   0.17971   0.00000
C          C       0.45214   0.06837   0.00000
O          O       0.56366   0.01262   0.00000
C          C       0.61942   0.06823   0.00000
O          O       0.81459   0.92878   0.00000
C          C       0.70307   0.06833   0.00000
O          O       0.28485   0.48621   0.00000
C          C       0.73095   0.01249   0.00000
O          O       0.31273   0.01233   0.00000
C          C       0.78671   0.98461   0.00000
O          O       0.28485   0.73394   0.00000
C          C       0.81459   0.01258   0.00000
O          O       0.11756   0.73375   0.00000
C          C       0.78671   0.06809   0.00000
O          O       0.11756   0.90103   0.00000
H          H       0.04341   0.88939   0.50000
C          C       0.73095   0.09596   0.50000
H          H       0.47411   0.25747   0.50000
C          C       0.87035   0.90090   0.50000
H          H       0.40799   0.09052   0.50000
C          C       0.89823   0.92887   0.50000
H          H       0.64150   0.02410   0.50000
C          C       0.89823   0.84540   0.50000
H          H       0.70884   0.99046   0.50000
C          C       0.95400   0.81753   0.50000
H          H       0.80869   0.09025   0.50000
C          C       0.98188   0.84516   0.50000
H          H       0.70887   0.14009   0.50000
C          C       0.95400   0.90100   0.50000
H          H       0.87626   0.82324   0.50000
C          C       0.45214   0.98456   0.50000
H          H       0.97607   0.77340   0.50000
C          C       0.36849   0.31902   0.50000
H          H       0.97611   0.92303   0.50000
C          C       0.39637   0.34699   0.50000
H          H       0.44052   0.32497   0.50000
C          C       0.36849   0.40283   0.50000
H          H       0.24071   0.42476   0.50000
C          C       0.31273   0.43070   0.50000
H          H       0.29062   0.32487   0.50000
C          C       0.28485   0.40273   0.50000
H          H       0.44052   0.49225   0.50000
C          C       0.31273   0.34689   0.50000
H          H       0.39047   0.59194   0.50000
C          C       0.36849   0.48630   0.50000
H          H       0.24071   0.59217   0.50000
C          C       0.31273   0.51417   0.50000
H          H       0.37430   0.05656   0.50000
C          C       0.39637   0.51427   0.50000
H          H       0.47421   0.85696   0.50000
C          C       0.36849   0.56978   0.50000
H          H       0.52416   0.90656   0.50000
C          C       0.31273   0.59765   0.50000
H          H       0.20702   0.05670   0.50000
C          C       0.28485   0.57001   0.50000
H          H       0.15706   0.00662   0.50000
C          C       0.39637   0.01243   0.50000
H          H       0.30692   0.85676   0.50000
C          C       0.36849   0.98446   0.50000
H          H       0.46685   0.40456   0.87023
C          C       0.39637   0.92896   0.50000
H          H       0.46685   0.36044   0.53477
C          C       0.45214   0.90108   0.50000
H          H       0.46685   0.42072   0.59500
C          C       0.48002   0.92872   0.50000
H          H       0.90772   0.01757   0.86588
C          C       0.28485   0.98470   0.50000
H          H       0.93569   0.98952   0.57383
C          C       0.31273   0.92886   0.50000
H          H       0.87346   0.05191   0.56029
C          C       0.22909   0.01257   0.50000
H          H       0.40153   0.83044   0.86589
C          C       0.20121   0.98460   0.50000
H          H       0.37364   0.83047   0.57411
C          C       0.22909   0.92876   0.50000
H          H       0.43599   0.83040   0.56000
C          C       0.28485   0.90089   0.50000
H          H       0.24526   0.67500   0.94634
C          C       0.45214   0.40259   0.50000
H          H       0.30298   0.67494   0.55366
C          C       0.89823   0.01235   0.50000
H          H       0.27323   0.82318   0.50000
C          C       0.39637   0.84515   0.50000
H          H       0.20698   0.65598   0.50000
C          C       0.06552   0.84526   0.50000
H          H       0.30634   0.66218   0.58496
C          C       0.22909   0.84529   0.50000
H          H       0.49835   0.25015   0.57411
C          C       0.20121   0.81732   0.50000
H          H       0.52625   0.25012   0.86589
C          C       0.14545   0.84519   0.50000
H          H       0.56070   0.25008   0.56000
C          C       0.11756   0.81756   0.50000
H          H       0.63414   0.98672   0.87023
C          C       0.14545   0.76172   0.50000
H          H       0.63414   0.94260   0.53477
C          C       0.20121   0.73384   0.50000
H          H       0.63414   0.00288   0.59500
C          C       0.22909   0.76181   0.50000
H          H       0.32222   0.76680   0.86588
C          C       0.22909   0.67801   0.50000
H          H       0.35019   0.73875   0.57383
C          C       0.53578   0.23541   0.50000
H          H       0.28796   0.80115   0.56029
C          C       0.61942   0.98475   0.50000
H          H       0.15060   0.66320   0.86589
C          C       0.31273   0.76158   0.50000
H          H       0.12271   0.66323   0.57411
C          C       0.14545   0.67791   0.50000
H          H       0.18506   0.66316   0.56000
C          C       0.06180   0.92890   0.50000
H          H       0.04709   0.90145   0.53477
C          C       0.36849   0.15174   0.50000
H          H       0.04709   0.94558   0.87023
N          N       0.64730   0.09620   0.50000
H          H       0.04709   0.96173   0.59500
N          N       0.87035   0.98471   0.50000
H          H       0.39123   0.11434   0.57411
N          N       0.48002   0.01253   0.50000
H          H       0.36334   0.14219   0.86589
N          N       0.39637   0.26318   0.50000
H          H       0.32888   0.17659   0.56000
N          N       0.39637   0.43046   0.50000
C          C       0.45214   0.15184   0.50000
N          N       0.36849   0.90099   0.50000
C          C       0.48002   0.09600   0.50000
N          N       0.28485   0.65349   0.50000
C          C       0.53578   0.06813   0.50000
N          N       0.03764   0.81729   0.50000
C          C       0.56366   0.09610   0.50000
N          N       0.20121   0.90113   0.50000
C          C       0.53578   0.15194   0.50000
N          N       0.28485   0.65013   0.50000
C          C       0.48002   0.17981   0.50000
O          O       0.56366   0.17957   0.50000
C          C       0.45214   0.23531   0.50000
O          O       0.39637   0.17971   0.50000
C          C       0.45214   0.06837   0.50000
O          O       0.56366   0.01262   0.50000
C          C       0.61942   0.06823   0.50000
O          O       0.81459   0.92878   0.50000
C          C       0.70307   0.06833   0.50000
O          O       0.28485   0.48621   0.50000
C          C       0.73095   0.01249   0.50000
O          O       0.31273   0.01233   0.50000
C          C       0.78671   0.98461   0.50000
O          O       0.28485   0.73394   0.50000
C          C       0.81459   0.01258   0.50000
O          O       0.11756   0.73375   0.50000
C          C       0.78671   0.06809   0.50000
O          O       0.11756   0.90103   0.50000
