data_crystal

_cell_length_a    18.30200
_cell_length_b    18.30200
_cell_length_c    7.01200
_cell_angle_alpha 90.00000
_cell_angle_beta  90.00000
_cell_angle_gamma 120.00000

_symmetry_space_group_name_Hall 'P 1'
_symmetry_space_group_name_H-M  'P 1'

loop_
_symmetry_equiv_pos_as_xyz
 'x,y,z'

loop_
_atom_site_label
_atom_site_type_symbol
_atom_site_fract_x
_atom_site_fract_y
_atom_site_fract_z
C          C       0.67148   0.42017   0.00001
C          C       0.58361   0.37293   0.00001
C          C       0.53517   0.41094   0.00001
C          C       0.57359   0.49656   0.00001
C          C       0.66144   0.54352   0.00001
C          C       0.70995   0.50552   0.00001
C          C       0.52174   0.53610   0.00001
C          C       0.55905   0.62160   0.00001
C          C       0.50903   0.65815   0.00001
C          C       0.42181   0.60771   0.00001
C          C       0.38578   0.52246   0.00001
N          N       0.43656   0.48924   0.00001
C          C       0.54721   0.74836   0.00001
C          C       0.29375   0.46891   0.00001
C          C       0.49620   0.78408   0.00000
C          C       0.53163   0.86903   0.50000
C          C       0.61860   0.91983   0.50000
C          C       0.67020   0.88473   0.00000
C          C       0.63466   0.79961   0.00001
C          C       0.25791   0.38349   0.00000
C          C       0.17080   0.33263   0.00000
C          C       0.11835   0.36641   0.00001
C          C       0.15403   0.45189   0.00001
C          C       0.24094   0.50259   0.00001
N          N       0.72288   0.38307   0.00001
C          C       0.69231   0.30446   0.00000
C          C       0.74685   0.26831   0.00000
C          C       0.71147   0.18282   0.00000
C          C       0.76409   0.14818   0.00000
C          C       0.85108   0.19975   0.00000
C          C       0.88627   0.28491   0.00000
C          C       0.83408   0.31869   0.00001
N          N       0.02935   0.31299   0.00000
C          C       0.97714   0.34014   0.00001
N          N       0.65245   0.00658   0.50000
C          C       0.73198   0.05926   0.00000
O          O       0.62596   0.13391   0.50000
H          H       0.55184   0.30327   0.00001
H          H       0.46385   0.37231   0.00001
H          H       0.69375   0.61321   0.00002
H          H       0.78127   0.54418   0.00001
H          H       0.63027   0.66139   0.00001
H          H       0.37973   0.63601   0.00001
H          H       0.42514   0.74295   0.00000
H          H       0.48952   0.89730   0.50000
H          H       0.74128   0.92565   0.00000
H          H       0.67674   0.77130   0.00001
H          H       0.30035   0.35559   0.00000
H          H       0.14224   0.26328   0.50000
H          H       0.11194   0.48018   0.00001
H          H       0.26954   0.57195   0.00002
H          H       0.62153   0.26159   0.00000
H          H       0.89414   0.17253   0.00000
H          H       0.86238   0.38801   0.00001
H          H       0.00159   0.40888   0.00001
H          H       0.77945   0.03726   0.00000
H          H       0.59830   0.15762   0.10527
C          C       0.67148   0.42017   0.50001
C          C       0.58361   0.37293   0.50001
C          C       0.53517   0.41094   0.50001
C          C       0.57359   0.49656   0.50001
C          C       0.66144   0.54352   0.50001
C          C       0.70995   0.50552   0.50001
C          C       0.52174   0.53610   0.50001
C          C       0.55905   0.62160   0.50001
C          C       0.50903   0.65815   0.50001
C          C       0.42181   0.60771   0.50001
C          C       0.38578   0.52246   0.50001
N          N       0.43656   0.48924   0.50001
C          C       0.54721   0.74836   0.50001
C          C       0.29375   0.46891   0.50001
C          C       0.49620   0.78408   0.50000
C          C       0.53163   0.86903   1.00000
C          C       0.61860   0.91983   1.00000
C          C       0.67020   0.88473   0.50000
C          C       0.63466   0.79961   0.50001
C          C       0.25791   0.38349   0.50000
C          C       0.17080   0.33263   0.50000
C          C       0.11835   0.36641   0.50001
C          C       0.15403   0.45189   0.50001
C          C       0.24094   0.50259   0.50001
N          N       0.72288   0.38307   0.50001
C          C       0.69231   0.30446   0.50000
C          C       0.74685   0.26831   0.50000
C          C       0.71147   0.18282   0.50000
C          C       0.76409   0.14818   0.50000
C          C       0.85108   0.19975   0.50000
C          C       0.88627   0.28491   0.50000
C          C       0.83408   0.31869   0.50001
N          N       0.02935   0.31299   0.50000
C          C       0.97714   0.34014   0.50001
N          N       0.65245   0.00658   1.00000
C          C       0.73198   0.05926   0.50000
O          O       0.62596   0.13391   1.00000
H          H       0.55184   0.30327   0.50001
H          H       0.46385   0.37231   0.50001
H          H       0.69375   0.61321   0.50001
H          H       0.78127   0.54418   0.50001
H          H       0.63027   0.66139   0.50001
H          H       0.37973   0.63601   0.50001
H          H       0.42514   0.74295   0.50000
H          H       0.48952   0.89730   1.00000
H          H       0.74128   0.92565   0.50000
H          H       0.67674   0.77130   0.50001
H          H       0.30035   0.35559   0.50000
H          H       0.14224   0.26328   1.00000
H          H       0.11194   0.48018   0.50001
H          H       0.26954   0.57195   0.50001
H          H       0.62153   0.26159   0.50000
H          H       0.89414   0.17253   0.50000
H          H       0.86238   0.38801   0.50001
H          H       0.00159   0.40888   0.50001
H          H       0.77945   0.03726   0.50000
H          H       0.59830   0.15762   0.60527
